


                               __________________________________________
                              |                                          |
                              |  NUMERICAL ELECTROMAGNETICS CODE (nec2c) |
                              |   Translated to 'C' in Double Precision  |
                              |__________________________________________|



                               ---------------- COMMENTS ----------------
                               --- NEC2 Input File created or edited by xnec2c 3.2 ---
                                14 MHz vertical whip on a car roof
                               --- End Comments ---



                               -------- STRUCTURE SPECIFICATION --------
                                     COORDINATES MUST BE INPUT IN
                                     METERS OR BE SCALED TO METERS
                                     BEFORE STRUCTURE INPUT IS ENDED

  WIRE                                                                                 SEG FIRST  LAST  TAG
   No:        X1         Y1         Z1         X2         Y2         Z2       RADIUS   No:   SEG   SEG  No:
     1     0.00000    0.00000    0.00000    2.69000    0.00000    0.00000    0.04800     9     1     9    1
     2     2.69000    0.00000    0.00000    2.69000    0.00000    0.79000    0.04800     3    10    12    1
     3     2.69000    0.00000    0.79000    0.00000    0.00000    0.79000    0.04800     9    13    21    1
     4     0.00000    0.00000    0.79000    0.00000    0.00000    0.00000    0.04800     3    22    24    1
     5     2.69000    0.00000    0.79000    3.84000    0.00000    0.67000    0.04800     4    25    28    1
     6     3.84000    0.00000    0.67000    3.84000    0.00000    0.00000    0.04800     3    29    31    1
     7     3.84000    0.00000    0.00000    2.69000    0.00000    0.00000    0.04800     4    32    35    1
     8     3.84000    0.00000    0.67000    3.84000    0.84000    0.67000    0.04800     3    36    38    2
     9     3.84000    0.84000    0.67000    2.69000    0.84000    0.79000    0.04800     4    39    42    2
    10     2.69000    0.84000    0.79000    2.69000    0.00000    0.79000    0.04800     3    43    45    2
    11     3.84000    0.00000    0.00000    3.84000    0.84000    0.00000    0.04800     3    46    48    3
    12     3.84000    0.84000    0.00000    3.84000    0.84000    0.67000    0.04800     3    49    51    3
    13     0.48000    0.84000    1.25000    2.14000    0.84000    1.25000    0.04800     6    52    57    4
    14     2.14000    0.84000    1.25000    2.14000    0.00000    1.25000    0.04800     3    58    60    4
    15     2.14000    0.00000    1.25000    0.48000    0.00000    1.25000    0.04800     6    61    66    4
    16     0.48000    0.00000    1.25000    0.48000    0.84000    1.25000    0.04800     3    67    69    4
    17     0.00000    0.00000    0.00000    0.00000    0.84000    0.00000    0.04800     3    70    72    5
    18     0.00000    0.84000    0.00000    0.00000    0.84000    0.79000    0.04800     3    73    75    5
    19     0.00000    0.84000    0.79000    0.00000    0.00000    0.79000    0.04800     3    76    78    5
    20     0.00000    0.00000    0.79000    0.48000    0.00000    1.25000    0.04800     3    79    81    6
    21     1.40000    0.00000    0.79000    1.40000    0.00000    1.25000    0.04800     2    82    83    7
    22     2.14000    0.00000    1.25000    2.69000    0.00000    0.79000    0.04800     3    84    86    8
    23    -0.00000    1.68000   -0.00000   -0.00000    1.68000    0.79000    0.04800     3    87    89    9
    24    -0.00000    1.68000    0.79000    2.69000    1.68000    0.79000    0.04800     9    90    98    9
    25     2.69000    1.68000    0.79000    2.69000    1.68000   -0.00000    0.04800     3    99   101    9
    26     2.69000    1.68000   -0.00000   -0.00000    1.68000   -0.00000    0.04800     9   102   110    9
    27     2.69000    1.68000   -0.00000    3.84000    1.68000   -0.00000    0.04800     4   111   114   10
    28     3.84000    1.68000   -0.00000    3.84000    1.68000    0.67000    0.04800     3   115   117   10
    29     3.84000    1.68000    0.67000    2.69000    1.68000    0.79000    0.04800     4   118   121   10
    30     2.69000    1.68000    0.79000    2.69000    0.84000    0.79000    0.04800     3   122   124   11
    31     3.84000    0.84000    0.67000    3.84000    1.68000    0.67000    0.04800     3   125   127   11
    32     3.84000    0.84000   -0.00000    3.84000    1.68000   -0.00000    0.04800     3   128   130   12
    33     2.14000    0.84000    1.25000    2.14000    1.68000    1.25000    0.04800     3   131   133   13
    34     2.14000    1.68000    1.25000    0.48000    1.68000    1.25000    0.04800     6   134   139   13
    35     0.48000    1.68000    1.25000    0.48000    0.84000    1.25000    0.04800     3   140   142   13
    36    -0.00000    1.68000   -0.00000   -0.00000    0.84000   -0.00000    0.04800     3   143   145   14
    37    -0.00000    0.84000    0.79000   -0.00000    1.68000    0.79000    0.04800     3   146   148   14
    38    -0.00000    1.68000    0.79000    0.48000    1.68000    1.25000    0.04800     3   149   151   15
    39     1.40000    1.68000    0.79000    1.40000    1.68000    1.25000    0.04800     2   152   153   16
    40     2.14000    1.68000    1.25000    2.69000    1.68000    0.79000    0.04800     3   154   156   17
    41     0.00000    0.00000    0.26300    0.29900    0.00000    0.26300    0.04800     1   157   157    1
    42     0.29900    0.00000    0.26300    0.59800    0.00000    0.26300    0.04800     1   158   158    1
    43     0.59800    0.00000    0.26300    0.89700    0.00000    0.26300    0.04800     1   159   159    1
    44     0.89700    0.00000    0.26300    1.19600    0.00000    0.26300    0.04800     1   160   160    1
    45     1.19600    0.00000    0.26300    1.49400    0.00000    0.26300    0.04800     1   161   161    1
    46     1.49400    0.00000    0.26300    1.79300    0.00000    0.26300    0.04800     1   162   162    1
    47     1.79300    0.00000    0.26300    2.09200    0.00000    0.26300    0.04800     1   163   163    1
    48     2.09200    0.00000    0.26300    2.39100    0.00000    0.26300    0.04800     1   164   164    1
    49     2.39100    0.00000    0.26300    2.69000    0.00000    0.26300    0.04800     1   165   165    1
    50     0.00000    0.00000    0.52700    0.29900    0.00000    0.52700    0.04800     1   166   166    1
    51     0.29900    0.00000    0.52700    0.59800    0.00000    0.52700    0.04800     1   167   167    1
    52     0.59800    0.00000    0.52700    0.89700    0.00000    0.52700    0.04800     1   168   168    1
    53     0.89700    0.00000    0.52700    1.19600    0.00000    0.52700    0.04800     1   169   169    1
    54     1.19600    0.00000    0.52700    1.49400    0.00000    0.52700    0.04800     1   170   170    1
    55     1.49400    0.00000    0.52700    1.79300    0.00000    0.52700    0.04800     1   171   171    1
    56     1.79300    0.00000    0.52700    2.09200    0.00000    0.52700    0.04800     1   172   172    1
    57     2.09200    0.00000    0.52700    2.39100    0.00000    0.52700    0.04800     1   173   173    1
    58     2.39100    0.00000    0.52700    2.69000    0.00000    0.52700    0.04800     1   174   174    1
    59     0.29900    0.00000    0.00000    0.29900    0.00000    0.79000    0.04800     3   175   177    1
    60     0.59800    0.00000    0.00000    0.59800    0.00000    0.79000    0.04800     3   178   180    1
    61     0.89700    0.00000    0.00000    0.89700    0.00000    0.79000    0.04800     3   181   183    1
    62     1.19600    0.00000    0.00000    1.19600    0.00000    0.79000    0.04800     3   184   186    1
    63     1.49400    0.00000    0.00000    1.49400    0.00000    0.79000    0.04800     3   187   189    1
    64     1.79300    0.00000    0.00000    1.79300    0.00000    0.79000    0.04800     3   190   192    1
    65     2.09200    0.00000    0.00000    2.09200    0.00000    0.79000    0.04800     3   193   195    1
    66     2.39100    0.00000    0.00000    2.39100    0.00000    0.79000    0.04800     3   196   198    1
    67     3.84000    0.00000    0.22300    3.55300    0.00000    0.23300    0.04800     1   199   199    1
    68     3.55300    0.00000    0.23300    3.26500    0.00000    0.24300    0.04800     1   200   200    1
    69     3.26500    0.00000    0.24300    2.97800    0.00000    0.25300    0.04800     1   201   201    1
    70     2.97800    0.00000    0.25300    2.69000    0.00000    0.26300    0.04800     1   202   202    1
    71     3.84000    0.00000    0.44700    3.55300    0.00000    0.46700    0.04800     1   203   203    1
    72     3.55300    0.00000    0.46700    3.26500    0.00000    0.48700    0.04800     1   204   204    1
    73     3.26500    0.00000    0.48700    2.97800    0.00000    0.50700    0.04800     1   205   205    1
    74     2.97800    0.00000    0.50700    2.69000    0.00000    0.52700    0.04800     1   206   206    1
    75     3.55300    0.00000    0.00000    3.55300    0.00000    0.70000    0.04800     3   207   209    1
    76     3.26500    0.00000    0.00000    3.26500    0.00000    0.73000    0.04800     3   210   212    1
    77     2.97800    0.00000    0.00000    2.97800    0.00000    0.76000    0.04800     3   213   215    1
    78     2.69000    0.28000    0.79000    2.97800    0.28000    0.76000    0.04800     1   216   216    2
    79     2.97800    0.28000    0.76000    3.26500    0.28000    0.73000    0.04800     1   217   217    2
    80     3.26500    0.28000    0.73000    3.55300    0.28000    0.70000    0.04800     1   218   218    2
    81     3.55300    0.28000    0.70000    3.84000    0.28000    0.67000    0.04800     1   219   219    2
    82     2.69000    0.56000    0.79000    2.97800    0.56000    0.76000    0.04800     1   220   220    2
    83     2.97800    0.56000    0.76000    3.26500    0.56000    0.73000    0.04800     1   221   221    2
    84     3.26500    0.56000    0.73000    3.55300    0.56000    0.70000    0.04800     1   222   222    2
    85     3.55300    0.56000    0.70000    3.84000    0.56000    0.67000    0.04800     1   223   223    2
    86     2.97800    0.00000    0.76000    2.97800    0.84000    0.76000    0.04800     3   224   226    2
    87     3.26500    0.00000    0.73000    3.26500    0.84000    0.73000    0.04800     3   227   229    2
    88     3.55300    0.00000    0.70000    3.55300    0.84000    0.70000    0.04800     3   230   232    2
    89     3.84000    0.00000    0.22300    3.84000    0.28000    0.22300    0.04800     1   233   233    3
    90     3.84000    0.28000    0.22300    3.84000    0.56000    0.22300    0.04800     1   234   234    3
    91     3.84000    0.56000    0.22300    3.84000    0.84000    0.22300    0.04800     1   235   235    3
    92     3.84000    0.00000    0.44700    3.84000    0.28000    0.44700    0.04800     1   236   236    3
    93     3.84000    0.28000    0.44700    3.84000    0.56000    0.44700    0.04800     1   237   237    3
    94     3.84000    0.56000    0.44700    3.84000    0.84000    0.44700    0.04800     1   238   238    3
    95     3.84000    0.28000    0.00000    3.84000    0.28000    0.67000    0.04800     3   239   241    3
    96     3.84000    0.56000    0.00000    3.84000    0.56000    0.67000    0.04800     3   242   244    3
    97     0.48000    0.56000    1.25000    0.75700    0.56000    1.25000    0.04800     1   245   245    4
    98     0.75700    0.56000    1.25000    1.03300    0.56000    1.25000    0.04800     1   246   246    4
    99     1.03300    0.56000    1.25000    1.31000    0.56000    1.25000    0.04800     1   247   247    4
   100     1.31000    0.56000    1.25000    1.58700    0.56000    1.25000    0.04800     1   248   248    4
   101     1.58700    0.56000    1.25000    1.86300    0.56000    1.25000    0.04800     1   249   249    4
   102     1.86300    0.56000    1.25000    2.14000    0.56000    1.25000    0.04800     1   250   250    4
   103     0.48000    0.28000    1.25000    0.75700    0.28000    1.25000    0.04800     1   251   251    4
   104     0.75700    0.28000    1.25000    1.03300    0.28000    1.25000    0.04800     1   252   252    4
   105     1.03300    0.28000    1.25000    1.31000    0.28000    1.25000    0.04800     1   253   253    4
   106     1.31000    0.28000    1.25000    1.58700    0.28000    1.25000    0.04800     1   254   254    4
   107     1.58700    0.28000    1.25000    1.86300    0.28000    1.25000    0.04800     1   255   255    4
   108     1.86300    0.28000    1.25000    2.14000    0.28000    1.25000    0.04800     1   256   256    4
   109     0.75700    0.84000    1.25000    0.75700    0.00000    1.25000    0.04800     3   257   259    4
   110     1.03300    0.84000    1.25000    1.03300    0.00000    1.25000    0.04800     3   260   262    4
   111     1.31000    0.84000    1.25000    1.31000    0.00000    1.25000    0.04800     3   263   265    4
   112     1.58700    0.84000    1.25000    1.58700    0.00000    1.25000    0.04800     3   266   268    4
   113     1.86300    0.84000    1.25000    1.86300    0.00000    1.25000    0.04800     3   269   271    4
   114     0.00000    0.00000    0.26300    0.00000    0.28000    0.26300    0.04800     1   272   272    5
   115     0.00000    0.28000    0.26300    0.00000    0.56000    0.26300    0.04800     1   273   273    5
   116     0.00000    0.56000    0.26300    0.00000    0.84000    0.26300    0.04800     1   274   274    5
   117     0.00000    0.00000    0.52700    0.00000    0.28000    0.52700    0.04800     1   275   275    5
   118     0.00000    0.28000    0.52700    0.00000    0.56000    0.52700    0.04800     1   276   276    5
   119     0.00000    0.56000    0.52700    0.00000    0.84000    0.52700    0.04800     1   277   277    5
   120     0.00000    0.28000    0.00000    0.00000    0.28000    0.79000    0.04800     3   278   280    5
   121     0.00000    0.56000    0.00000    0.00000    0.56000    0.79000    0.04800     3   281   283    5
   122    -0.00000    1.68000    0.52700    0.29900    1.68000    0.52700    0.04800     1   284   284    9
   123     0.29900    1.68000    0.52700    0.59800    1.68000    0.52700    0.04800     1   285   285    9
   124     0.59800    1.68000    0.52700    0.89700    1.68000    0.52700    0.04800     1   286   286    9
   125     0.89700    1.68000    0.52700    1.19600    1.68000    0.52700    0.04800     1   287   287    9
   126     1.19600    1.68000    0.52700    1.49400    1.68000    0.52700    0.04800     1   288   288    9
   127     1.49400    1.68000    0.52700    1.79300    1.68000    0.52700    0.04800     1   289   289    9
   128     1.79300    1.68000    0.52700    2.09200    1.68000    0.52700    0.04800     1   290   290    9
   129     2.09200    1.68000    0.52700    2.39100    1.68000    0.52700    0.04800     1   291   291    9
   130     2.39100    1.68000    0.52700    2.69000    1.68000    0.52700    0.04800     1   292   292    9
   131    -0.00000    1.68000    0.26300    0.29900    1.68000    0.26300    0.04800     1   293   293    9
   132     0.29900    1.68000    0.26300    0.59800    1.68000    0.26300    0.04800     1   294   294    9
   133     0.59800    1.68000    0.26300    0.89700    1.68000    0.26300    0.04800     1   295   295    9
   134     0.89700    1.68000    0.26300    1.19600    1.68000    0.26300    0.04800     1   296   296    9
   135     1.19600    1.68000    0.26300    1.49400    1.68000    0.26300    0.04800     1   297   297    9
   136     1.49400    1.68000    0.26300    1.79300    1.68000    0.26300    0.04800     1   298   298    9
   137     1.79300    1.68000    0.26300    2.09200    1.68000    0.26300    0.04800     1   299   299    9
   138     2.09200    1.68000    0.26300    2.39100    1.68000    0.26300    0.04800     1   300   300    9
   139     2.39100    1.68000    0.26300    2.69000    1.68000    0.26300    0.04800     1   301   301    9
   140     0.29900    1.68000    0.79000    0.29900    1.68000   -0.00000    0.04800     3   302   304    9
   141     0.59800    1.68000    0.79000    0.59800    1.68000   -0.00000    0.04800     3   305   307    9
   142     0.89700    1.68000    0.79000    0.89700    1.68000   -0.00000    0.04800     3   308   310    9
   143     1.19600    1.68000    0.79000    1.19600    1.68000   -0.00000    0.04800     3   311   313    9
   144     1.49400    1.68000    0.79000    1.49400    1.68000   -0.00000    0.04800     3   314   316    9
   145     1.79300    1.68000    0.79000    1.79300    1.68000   -0.00000    0.04800     3   317   319    9
   146     2.09200    1.68000    0.79000    2.09200    1.68000   -0.00000    0.04800     3   320   322    9
   147     2.39100    1.68000    0.79000    2.39100    1.68000   -0.00000    0.04800     3   323   325    9
   148     2.69000    1.68000    0.26300    2.97800    1.68000    0.25300    0.04800     1   326   326   10
   149     2.97800    1.68000    0.25300    3.26500    1.68000    0.24300    0.04800     1   327   327   10
   150     3.26500    1.68000    0.24300    3.55300    1.68000    0.23300    0.04800     1   328   328   10
   151     3.55300    1.68000    0.23300    3.84000    1.68000    0.22300    0.04800     1   329   329   10
   152     2.69000    1.68000    0.52700    2.97800    1.68000    0.50700    0.04800     1   330   330   10
   153     2.97800    1.68000    0.50700    3.26500    1.68000    0.48700    0.04800     1   331   331   10
   154     3.26500    1.68000    0.48700    3.55300    1.68000    0.46700    0.04800     1   332   332   10
   155     3.55300    1.68000    0.46700    3.84000    1.68000    0.44700    0.04800     1   333   333   10
   156     2.97800    1.68000   -0.00000    2.97800    1.68000    0.76000    0.04800     3   334   336   10
   157     3.26500    1.68000   -0.00000    3.26500    1.68000    0.73000    0.04800     3   337   339   10
   158     3.55300    1.68000   -0.00000    3.55300    1.68000    0.70000    0.04800     3   340   342   10
   159     3.84000    1.40000    0.67000    3.55300    1.40000    0.70000    0.04800     1   343   343   11
   160     3.55300    1.40000    0.70000    3.26500    1.40000    0.73000    0.04800     1   344   344   11
   161     3.26500    1.40000    0.73000    2.97800    1.40000    0.76000    0.04800     1   345   345   11
   162     2.97800    1.40000    0.76000    2.69000    1.40000    0.79000    0.04800     1   346   346   11
   163     3.84000    1.12000    0.67000    3.55300    1.12000    0.70000    0.04800     1   347   347   11
   164     3.55300    1.12000    0.70000    3.26500    1.12000    0.73000    0.04800     1   348   348   11
   165     3.26500    1.12000    0.73000    2.97800    1.12000    0.76000    0.04800     1   349   349   11
   166     2.97800    1.12000    0.76000    2.69000    1.12000    0.79000    0.04800     1   350   350   11
   167     3.55300    1.68000    0.70000    3.55300    0.84000    0.70000    0.04800     3   351   353   11
   168     3.26500    1.68000    0.73000    3.26500    0.84000    0.73000    0.04800     3   354   356   11
   169     2.97800    1.68000    0.76000    2.97800    0.84000    0.76000    0.04800     3   357   359   11
   170     3.84000    0.84000    0.22300    3.84000    1.12000    0.22300    0.04800     1   360   360   12
   171     3.84000    1.12000    0.22300    3.84000    1.40000    0.22300    0.04800     1   361   361   12
   172     3.84000    1.40000    0.22300    3.84000    1.68000    0.22300    0.04800     1   362   362   12
   173     3.84000    0.84000    0.44700    3.84000    1.12000    0.44700    0.04800     1   363   363   12
   174     3.84000    1.12000    0.44700    3.84000    1.40000    0.44700    0.04800     1   364   364   12
   175     3.84000    1.40000    0.44700    3.84000    1.68000    0.44700    0.04800     1   365   365   12
   176     3.84000    1.12000   -0.00000    3.84000    1.12000    0.67000    0.04800     3   366   368   12
   177     3.84000    1.40000   -0.00000    3.84000    1.40000    0.67000    0.04800     3   369   371   12
   178     0.48000    1.12000    1.25000    0.75700    1.12000    1.25000    0.04800     1   372   372   13
   179     0.75700    1.12000    1.25000    1.03300    1.12000    1.25000    0.04800     1   373   373   13
   180     1.03300    1.12000    1.25000    1.31000    1.12000    1.25000    0.04800     1   374   374   13
   181     1.31000    1.12000    1.25000    1.58700    1.12000    1.25000    0.04800     1   375   375   13
   182     1.58700    1.12000    1.25000    1.86300    1.12000    1.25000    0.04800     1   376   376   13
   183     1.86300    1.12000    1.25000    2.14000    1.12000    1.25000    0.04800     1   377   377   13
   184     0.48000    1.40000    1.25000    0.75700    1.40000    1.25000    0.04800     1   378   378   13
   185     0.75700    1.40000    1.25000    1.03300    1.40000    1.25000    0.04800     1   379   379   13
   186     1.03300    1.40000    1.25000    1.31000    1.40000    1.25000    0.04800     1   380   380   13
   187     1.31000    1.40000    1.25000    1.58700    1.40000    1.25000    0.04800     1   381   381   13
   188     1.58700    1.40000    1.25000    1.86300    1.40000    1.25000    0.04800     1   382   382   13
   189     1.86300    1.40000    1.25000    2.14000    1.40000    1.25000    0.04800     1   383   383   13
   190     0.75700    0.84000    1.25000    0.75700    1.68000    1.25000    0.04800     3   384   386   13
   191     1.03300    0.84000    1.25000    1.03300    1.68000    1.25000    0.04800     3   387   389   13
   192     1.31000    0.84000    1.25000    1.31000    1.68000    1.25000    0.04800     3   390   392   13
   193     1.58700    0.84000    1.25000    1.58700    1.68000    1.25000    0.04800     3   393   395   13
   194     1.86300    0.84000    1.25000    1.86300    1.68000    1.25000    0.04800     3   396   398   13
   195    -0.00000    1.68000    0.26300   -0.00000    1.40000    0.26300    0.04800     1   399   399   14
   196    -0.00000    1.40000    0.26300   -0.00000    1.12000    0.26300    0.04800     1   400   400   14
   197    -0.00000    1.12000    0.26300   -0.00000    0.84000    0.26300    0.04800     1   401   401   14
   198    -0.00000    1.68000    0.52700   -0.00000    1.40000    0.52700    0.04800     1   402   402   14
   199    -0.00000    1.40000    0.52700   -0.00000    1.12000    0.52700    0.04800     1   403   403   14
   200    -0.00000    1.12000    0.52700   -0.00000    0.84000    0.52700    0.04800     1   404   404   14
   201    -0.00000    1.40000   -0.00000   -0.00000    1.40000    0.79000    0.04800     3   405   407   14
   202    -0.00000    1.12000   -0.00000   -0.00000    1.12000    0.79000    0.04800     3   408   410   14
   203     1.31000    0.84000    1.25000    1.31000    0.84000    6.70000    0.00500    13   411   423   18

     TOTAL SEGMENTS USED: 423   SEGMENTS IN A SYMMETRIC CELL: 423   SYMMETRY FLAG: 0

    ---------- MULTIPLE WIRE JUNCTIONS ----------
    JUNCTION  SEGMENTS (- FOR END 1, + FOR END 2)
       1         -1   24  -70
       2          1   -2 -175
       3          2   -3 -178
       4          7   -8 -193
       5          8   -9 -196
       6          9  -10   35
       7         12  -13  -25   45   86
       8         13  -14  198
       9         14  -15  195
      10         19  -20  180
      11         20  -21  177
      12         21  -22   78  -79
      13         26  -27  212 -227
      14         28  -29  -36
      15         31  -32  -46
      16         33  -34 -210
      17         36  -37  219  241
      18         37  -38  223  244
      19         38  -39   51 -125
      20         40  -41  229  356
      21         42  -43  124
      22         43  -44 -220
      23         44  -45 -216
      24         46  -47 -239
      25         47  -48 -242
      26         48  -49 -128
      27        -52   69  142
      28         54  -55 -263 -390 -411
      29         57  -58 -131
      30         58  -59  250
      31         59  -60  256
      32         60  -61  -84
      33         63  -64  265
      34         66  -67   81
      35         67  -68 -251
      36         68  -69 -245
      37         70  -71 -278
      38         71  -72 -281
      39         72  -73  145
      40         75  -76 -146
      41         76  -77  283
      42         77  -78  280
      43        -87  110 -143
      44         89  -90  148 -149
      45         90  -91 -302
      46         91  -92 -305
      47         96  -97 -320
      48         97  -98 -323
      49         98  -99  121 -122  156
      50        101 -102 -111
      51        102 -103  325
      52        103 -104  322
      53        108 -109  307
      54        109 -110  304
      55        112 -113 -337
      56        114 -115  130
      57        117 -118  127
      58        119 -120  339 -354
      59        122 -123  346
      60        123 -124  350
      61        125 -126 -347  368
      62        126 -127 -343  371
      63        128 -129 -366
      64        129 -130 -369
      65        131 -132  377
      66        132 -133  383
      67        133 -134 -154
      68        136 -137  392
      69        139 -140  151
      70        140 -141 -378
      71        141 -142 -372
      72        143 -144 -405
      73        144 -145 -408
      74        146 -147  410
      75        147 -148  407
      76        216 -217  224 -225
      77        217 -218  227 -228
      78        218 -219  230 -231
      79        220 -221  225 -226
      80        221 -222  228 -229
      81        222 -223  231 -232
      82        245 -246  257 -258
      83        246 -247  260 -261
      84        247 -248  263 -264
      85        248 -249  266 -267
      86        249 -250  269 -270
      87        251 -252  258 -259
      88        252 -253  261 -262
      89        253 -254  264 -265
      90        254 -255  267 -268
      91        255 -256  270 -271
      92        343 -344  351 -352
      93        344 -345  354 -355
      94        345 -346  357 -358
      95        347 -348  352 -353
      96        348 -349  355 -356
      97        349 -350  358 -359
      98        372 -373  384 -385
      99        373 -374  387 -388
     100        374 -375  390 -391
     101        375 -376  393 -394
     102        376 -377  396 -397
     103        378 -379  385 -386
     104        379 -380  388 -389
     105        380 -381  391 -392
     106        381 -382  394 -395
     107        382 -383  397 -398


                               ---------- SEGMENTATION DATA ----------
                                        COORDINATES IN METERS
                            I+ AND I- INDICATE THE SEGMENTS BEFORE AND AFTER I

   SEG    COORDINATES OF SEGM CENTER     SEGM    ORIENTATION ANGLES    WIRE    CONNECTION DATA   TAG
   No:       X         Y         Z      LENGTH     ALPHA      BETA    RADIUS    I-     I    I+   No:
     1    0.1495    0.0000    0.0000    0.2989    0.0000    0.0000    0.0480    24     1     2     1
     2    0.4484    0.0000    0.0000    0.2989    0.0000    0.0000    0.0480  -175     2     3     1
     3    0.7473    0.0000    0.0000    0.2988    0.0000    0.0000    0.0480  -178     3     4     1
     4    1.0461    0.0000    0.0000    0.2989    0.0000    0.0000    0.0480     3     4     5     1
     5    1.3450    0.0000    0.0000    0.2989    0.0000    0.0000    0.0480     4     5     6     1
     6    1.6439    0.0000    0.0000    0.2989    0.0000    0.0000    0.0480     5     6     7     1
     7    1.9427    0.0000    0.0000    0.2988    0.0000    0.0000    0.0480     6     7     8     1
     8    2.2416    0.0000    0.0000    0.2989    0.0000    0.0000    0.0480  -193     8     9     1
     9    2.5405    0.0000    0.0000    0.2989    0.0000    0.0000    0.0480  -196     9    10     1
    10    2.6900    0.0000    0.1317    0.2633   90.0000    0.0000    0.0480    35    10    11     1
    11    2.6900    0.0000    0.3950    0.2633   90.0000    0.0000    0.0480    10    11    12     1
    12    2.6900    0.0000    0.6583    0.2633   90.0000    0.0000    0.0480    11    12    13     1
    13    2.5405    0.0000    0.7900    0.2989    0.0000  180.0000    0.0480   -25    13    14     1
    14    2.2416    0.0000    0.7900    0.2989    0.0000  180.0000    0.0480   198    14    15     1
    15    1.9427    0.0000    0.7900    0.2988    0.0000  180.0000    0.0480   195    15    16     1
    16    1.6439    0.0000    0.7900    0.2989    0.0000  180.0000    0.0480    15    16    17     1
    17    1.3450    0.0000    0.7900    0.2989    0.0000  180.0000    0.0480    16    17    18     1
    18    1.0461    0.0000    0.7900    0.2989    0.0000  180.0000    0.0480    17    18    19     1
    19    0.7473    0.0000    0.7900    0.2988    0.0000  180.0000    0.0480    18    19    20     1
    20    0.4484    0.0000    0.7900    0.2989    0.0000  180.0000    0.0480   180    20    21     1
    21    0.1495    0.0000    0.7900    0.2989    0.0000  180.0000    0.0480   177    21    22     1
    22    0.0000    0.0000    0.6583    0.2633  -90.0000    0.0000    0.0480    78    22    23     1
    23    0.0000    0.0000    0.3950    0.2633  -90.0000    0.0000    0.0480    22    23    24     1
    24    0.0000    0.0000    0.1317    0.2633  -90.0000    0.0000    0.0480    23    24    70     1
    25    2.8338    0.0000    0.7750    0.2891   -5.9571    0.0000    0.0480    45    25    26     1
    26    3.1212    0.0000    0.7450    0.2891   -5.9571    0.0000    0.0480    25    26    27     1
    27    3.4088    0.0000    0.7150    0.2891   -5.9571    0.0000    0.0480   212    27    28     1
    28    3.6963    0.0000    0.6850    0.2891   -5.9571    0.0000    0.0480    27    28    29     1
    29    3.8400    0.0000    0.5583    0.2233  -90.0000    0.0000    0.0480   -36    29    30     1
    30    3.8400    0.0000    0.3350    0.2233  -90.0000    0.0000    0.0480    29    30    31     1
    31    3.8400    0.0000    0.1117    0.2233  -90.0000    0.0000    0.0480    30    31    32     1
    32    3.6963    0.0000    0.0000    0.2875    0.0000  180.0000    0.0480   -46    32    33     1
    33    3.4087    0.0000    0.0000    0.2875    0.0000  180.0000    0.0480    32    33    34     1
    34    3.1212    0.0000    0.0000    0.2875    0.0000  180.0000    0.0480  -210    34    35     1
    35    2.8337    0.0000    0.0000    0.2875    0.0000  180.0000    0.0480    34    35    -9     1
    36    3.8400    0.1400    0.6700    0.2800    0.0000   90.0000    0.0480    28    36    37     2
    37    3.8400    0.4200    0.6700    0.2800    0.0000   90.0000    0.0480   219    37    38     2
    38    3.8400    0.7000    0.6700    0.2800    0.0000   90.0000    0.0480   223    38    39     2
    39    3.6963    0.8400    0.6850    0.2891    5.9571  180.0000    0.0480    51    39    40     2
    40    3.4087    0.8400    0.7150    0.2891    5.9571  180.0000    0.0480    39    40    41     2
    41    3.1212    0.8400    0.7450    0.2891    5.9571  180.0000    0.0480   229    41    42     2
    42    2.8337    0.8400    0.7750    0.2891    5.9571  180.0000    0.0480    41    42    43     2
    43    2.6900    0.7000    0.7900    0.2800    0.0000  -90.0000    0.0480   124    43    44     2
    44    2.6900    0.4200    0.7900    0.2800    0.0000  -90.0000    0.0480  -220    44    45     2
    45    2.6900    0.1400    0.7900    0.2800    0.0000  -90.0000    0.0480  -216    45   -86     2
    46    3.8400    0.1400    0.0000    0.2800    0.0000   90.0000    0.0480    31    46    47     3
    47    3.8400    0.4200    0.0000    0.2800    0.0000   90.0000    0.0480  -239    47    48     3
    48    3.8400    0.7000    0.0000    0.2800    0.0000   90.0000    0.0480  -242    48    49     3
    49    3.8400    0.8400    0.1117    0.2233   90.0000    0.0000    0.0480  -128    49    50     3
    50    3.8400    0.8400    0.3350    0.2233   90.0000    0.0000    0.0480    49    50    51     3
    51    3.8400    0.8400    0.5583    0.2233   90.0000    0.0000    0.0480    50    51   125     3
    52    0.6183    0.8400    1.2500    0.2767    0.0000    0.0000    0.0480    69    52    53     4
    53    0.8950    0.8400    1.2500    0.2767    0.0000    0.0000    0.0480    52    53    54     4
    54    1.1717    0.8400    1.2500    0.2767    0.0000    0.0000    0.0480    53    54    55     4
    55    1.4483    0.8400    1.2500    0.2767    0.0000   -0.0000    0.0480  -263    55    56     4
    56    1.7250    0.8400    1.2500    0.2767    0.0000    0.0000    0.0480    55    56    57     4
    57    2.0017    0.8400    1.2500    0.2767    0.0000    0.0000    0.0480    56    57    58     4
    58    2.1400    0.7000    1.2500    0.2800    0.0000  -90.0000    0.0480  -131    58    59     4
    59    2.1400    0.4200    1.2500    0.2800    0.0000  -90.0000    0.0480   250    59    60     4
    60    2.1400    0.1400    1.2500    0.2800    0.0000  -90.0000    0.0480   256    60    61     4
    61    2.0017    0.0000    1.2500    0.2767    0.0000  180.0000    0.0480   -84    61    62     4
    62    1.7250    0.0000    1.2500    0.2767    0.0000  180.0000    0.0480    61    62    63     4
    63    1.4483    0.0000    1.2500    0.2767    0.0000  180.0000    0.0480    62    63    64     4
    64    1.1717    0.0000    1.2500    0.2767    0.0000  180.0000    0.0480   265    64    65     4
    65    0.8950    0.0000    1.2500    0.2767    0.0000  180.0000    0.0480    64    65    66     4
    66    0.6183    0.0000    1.2500    0.2767    0.0000  180.0000    0.0480    65    66    67     4
    67    0.4800    0.1400    1.2500    0.2800    0.0000   90.0000    0.0480    81    67    68     4
    68    0.4800    0.4200    1.2500    0.2800    0.0000   90.0000    0.0480  -251    68    69     4
    69    0.4800    0.7000    1.2500    0.2800    0.0000   90.0000    0.0480  -245    69  -142     4
    70    0.0000    0.1400    0.0000    0.2800    0.0000   90.0000    0.0480    -1    70    71     5
    71    0.0000    0.4200    0.0000    0.2800    0.0000   90.0000    0.0480  -278    71    72     5
    72    0.0000    0.7000    0.0000    0.2800    0.0000   90.0000    0.0480  -281    72    73     5
    73    0.0000    0.8400    0.1317    0.2633   90.0000    0.0000    0.0480   145    73    74     5
    74    0.0000    0.8400    0.3950    0.2633   90.0000    0.0000    0.0480    73    74    75     5
    75    0.0000    0.8400    0.6583    0.2633   90.0000    0.0000    0.0480    74    75    76     5
    76    0.0000    0.7000    0.7900    0.2800    0.0000  -90.0000    0.0480  -146    76    77     5
    77    0.0000    0.4200    0.7900    0.2800    0.0000  -90.0000    0.0480   283    77    78     5
    78    0.0000    0.1400    0.7900    0.2800    0.0000  -90.0000    0.0480   280    78    79     5
    79    0.0800    0.0000    0.8667    0.2216   43.7811    0.0000    0.0480    21    79    80     6
    80    0.2400    0.0000    1.0200    0.2216   43.7811    0.0000    0.0480    79    80    81     6
    81    0.4000    0.0000    1.1733    0.2216   43.7811    0.0000    0.0480    80    81   -66     6
    82    1.4000    0.0000    0.9050    0.2300   90.0000    0.0000    0.0480     0    82    83     7
    83    1.4000    0.0000    1.1350    0.2300   90.0000    0.0000    0.0480    82    83     0     7
    84    2.2317    0.0000    1.1733    0.2390  -39.9079    0.0000    0.0480    60    84    85     8
    85    2.4150    0.0000    1.0200    0.2390  -39.9079    0.0000    0.0480    84    85    86     8
    86    2.5983    0.0000    0.8667    0.2390  -39.9079    0.0000    0.0480    85    86   -12     8
    87    0.0000    1.6800    0.1317    0.2633   90.0000    0.0000    0.0480   110    87    88     9
    88    0.0000    1.6800    0.3950    0.2633   90.0000    0.0000    0.0480    87    88    89     9
    89    0.0000    1.6800    0.6583    0.2633   90.0000  180.0000    0.0480    88    89    90     9
    90    0.1495    1.6800    0.7900    0.2989    0.0000    0.0000    0.0480   148    90    91     9
    91    0.4484    1.6800    0.7900    0.2989    0.0000    0.0000    0.0480  -302    91    92     9
    92    0.7473    1.6800    0.7900    0.2988    0.0000    0.0000    0.0480  -305    92    93     9
    93    1.0461    1.6800    0.7900    0.2989    0.0000    0.0000    0.0480    92    93    94     9
    94    1.3450    1.6800    0.7900    0.2989    0.0000    0.0000    0.0480    93    94    95     9
    95    1.6439    1.6800    0.7900    0.2989    0.0000    0.0000    0.0480    94    95    96     9
    96    1.9427    1.6800    0.7900    0.2988    0.0000    0.0000    0.0480    95    96    97     9
    97    2.2416    1.6800    0.7900    0.2989    0.0000    0.0000    0.0480  -320    97    98     9
    98    2.5405    1.6800    0.7900    0.2989    0.0000    0.0000    0.0480  -323    98    99     9
    99    2.6900    1.6800    0.6583    0.2633  -90.0000  -90.0000    0.0480   121    99   100     9
   100    2.6900    1.6800    0.3950    0.2633  -90.0000    0.0000    0.0480    99   100   101     9
   101    2.6900    1.6800    0.1317    0.2633  -90.0000    0.0000    0.0480   100   101   102     9
   102    2.5405    1.6800    0.0000    0.2989    0.0000  180.0000    0.0480  -111   102   103     9
   103    2.2416    1.6800    0.0000    0.2989    0.0000  180.0000    0.0480   325   103   104     9
   104    1.9427    1.6800    0.0000    0.2988    0.0000  180.0000    0.0480   322   104   105     9
   105    1.6439    1.6800    0.0000    0.2989    0.0000  180.0000    0.0480   104   105   106     9
   106    1.3450    1.6800    0.0000    0.2989    0.0000  180.0000    0.0480   105   106   107     9
   107    1.0461    1.6800    0.0000    0.2989    0.0000  180.0000    0.0480   106   107   108     9
   108    0.7473    1.6800    0.0000    0.2988    0.0000  180.0000    0.0480   107   108   109     9
   109    0.4484    1.6800    0.0000    0.2989    0.0000  180.0000    0.0480   307   109   110     9
   110    0.1495    1.6800    0.0000    0.2989   -0.0000  180.0000    0.0480   304   110   143     9
   111    2.8338    1.6800    0.0000    0.2875    0.0000    0.0000    0.0480   101   111   112    10
   112    3.1212    1.6800    0.0000    0.2875    0.0000    0.0000    0.0480   111   112   113    10
   113    3.4088    1.6800    0.0000    0.2875    0.0000    0.0000    0.0480  -337   113   114    10
   114    3.6963    1.6800    0.0000    0.2875   -0.0000    0.0000    0.0480   113   114   115    10
   115    3.8400    1.6800    0.1117    0.2233   90.0000    0.0000    0.0480   130   115   116    10
   116    3.8400    1.6800    0.3350    0.2233   90.0000    0.0000    0.0480   115   116   117    10
   117    3.8400    1.6800    0.5583    0.2233   90.0000    0.0000    0.0480   116   117   118    10
   118    3.6963    1.6800    0.6850    0.2891    5.9571  180.0000    0.0480   127   118   119    10
   119    3.4087    1.6800    0.7150    0.2891    5.9571  180.0000    0.0480   118   119   120    10
   120    3.1212    1.6800    0.7450    0.2891    5.9571  180.0000    0.0480   339   120   121    10
   121    2.8337    1.6800    0.7750    0.2891    5.9571  180.0000    0.0480   120   121   122    10
   122    2.6900    1.5400    0.7900    0.2800    0.0000  -90.0000    0.0480   156   122   123    11
   123    2.6900    1.2600    0.7900    0.2800    0.0000  -90.0000    0.0480   346   123   124    11
   124    2.6900    0.9800    0.7900    0.2800    0.0000  -90.0000    0.0480   350   124   -42    11
   125    3.8400    0.9800    0.6700    0.2800    0.0000   90.0000    0.0480    38   125   126    11
   126    3.8400    1.2600    0.6700    0.2800    0.0000   90.0000    0.0480  -347   126   127    11
   127    3.8400    1.5400    0.6700    0.2800    0.0000   90.0000    0.0480  -343   127  -117    11
   128    3.8400    0.9800    0.0000    0.2800    0.0000   90.0000    0.0480    48   128   129    12
   129    3.8400    1.2600    0.0000    0.2800    0.0000   90.0000    0.0480  -366   129   130    12
   130    3.8400    1.5400    0.0000    0.2800   -0.0000   90.0000    0.0480  -369   130  -114    12
   131    2.1400    0.9800    1.2500    0.2800    0.0000   90.0000    0.0480    57   131   132    13
   132    2.1400    1.2600    1.2500    0.2800    0.0000   90.0000    0.0480   377   132   133    13
   133    2.1400    1.5400    1.2500    0.2800    0.0000   90.0000    0.0480   383   133   134    13
   134    2.0017    1.6800    1.2500    0.2767    0.0000  180.0000    0.0480  -154   134   135    13
   135    1.7250    1.6800    1.2500    0.2767    0.0000  180.0000    0.0480   134   135   136    13
   136    1.4483    1.6800    1.2500    0.2767    0.0000  180.0000    0.0480   135   136   137    13
   137    1.1717    1.6800    1.2500    0.2767    0.0000  180.0000    0.0480   392   137   138    13
   138    0.8950    1.6800    1.2500    0.2767    0.0000  180.0000    0.0480   137   138   139    13
   139    0.6183    1.6800    1.2500    0.2767    0.0000  180.0000    0.0480   138   139   140    13
   140    0.4800    1.5400    1.2500    0.2800    0.0000  -90.0000    0.0480   151   140   141    13
   141    0.4800    1.2600    1.2500    0.2800    0.0000  -90.0000    0.0480  -378   141   142    13
   142    0.4800    0.9800    1.2500    0.2800    0.0000  -90.0000    0.0480  -372   142    52    13
   143    0.0000    1.5400    0.0000    0.2800    0.0000  -90.0000    0.0480   -87   143   144    14
   144    0.0000    1.2600    0.0000    0.2800    0.0000  -90.0000    0.0480  -405   144   145    14
   145    0.0000    0.9800    0.0000    0.2800    0.0000  -90.0000    0.0480  -408   145   -72    14
   146    0.0000    0.9800    0.7900    0.2800    0.0000   90.0000    0.0480    75   146   147    14
   147    0.0000    1.2600    0.7900    0.2800    0.0000   90.0000    0.0480   410   147   148    14
   148    0.0000    1.5400    0.7900    0.2800    0.0000   90.0000    0.0480   407   148   149    14
   149    0.0800    1.6800    0.8667    0.2216   43.7811    0.0000    0.0480    89   149   150    15
   150    0.2400    1.6800    1.0200    0.2216   43.7811    0.0000    0.0480   149   150   151    15
   151    0.4000    1.6800    1.1733    0.2216   43.7811    0.0000    0.0480   150   151  -139    15
   152    1.4000    1.6800    0.9050    0.2300   90.0000    0.0000    0.0480     0   152   153    16
   153    1.4000    1.6800    1.1350    0.2300   90.0000    0.0000    0.0480   152   153     0    16
   154    2.2317    1.6800    1.1733    0.2390  -39.9079    0.0000    0.0480   133   154   155    17
   155    2.4150    1.6800    1.0200    0.2390  -39.9079    0.0000    0.0480   154   155   156    17
   156    2.5983    1.6800    0.8667    0.2390  -39.9079    0.0000    0.0480   155   156   -98    17
   157    0.1495    0.0000    0.2630    0.2990    0.0000    0.0000    0.0480  -272   157   158     1
   158    0.4485    0.0000    0.2630    0.2990    0.0000    0.0000    0.0480   157   158   159     1
   159    0.7475    0.0000    0.2630    0.2990    0.0000    0.0000    0.0480   158   159   160     1
   160    1.0465    0.0000    0.2630    0.2990    0.0000    0.0000    0.0480   159   160   161     1
   161    1.3450    0.0000    0.2630    0.2980    0.0000    0.0000    0.0480   160   161   162     1
   162    1.6435    0.0000    0.2630    0.2990    0.0000    0.0000    0.0480   161   162   163     1
   163    1.9425    0.0000    0.2630    0.2990    0.0000    0.0000    0.0480   162   163   164     1
   164    2.2415    0.0000    0.2630    0.2990    0.0000    0.0000    0.0480   163   164   165     1
   165    2.5405    0.0000    0.2630    0.2990    0.0000    0.0000    0.0480   164   165  -202     1
   166    0.1495    0.0000    0.5270    0.2990    0.0000    0.0000    0.0480  -275   166   167     1
   167    0.4485    0.0000    0.5270    0.2990    0.0000    0.0000    0.0480   166   167   168     1
   168    0.7475    0.0000    0.5270    0.2990    0.0000    0.0000    0.0480   167   168   169     1
   169    1.0465    0.0000    0.5270    0.2990    0.0000    0.0000    0.0480   168   169   170     1
   170    1.3450    0.0000    0.5270    0.2980    0.0000    0.0000    0.0480   169   170   171     1
   171    1.6435    0.0000    0.5270    0.2990    0.0000    0.0000    0.0480   170   171   172     1
   172    1.9425    0.0000    0.5270    0.2990    0.0000    0.0000    0.0480   171   172   173     1
   173    2.2415    0.0000    0.5270    0.2990    0.0000    0.0000    0.0480   172   173   174     1
   174    2.5405    0.0000    0.5270    0.2990    0.0000    0.0000    0.0480   173   174  -206     1
   175    0.2990    0.0000    0.1317    0.2633   89.9839    0.0000    0.0480     1   175   176     1
   176    0.2990    0.0000    0.3950    0.2633   90.0000    0.0000    0.0480   175   176   177     1
   177    0.2990    0.0000    0.6583    0.2633   89.9839  180.0000    0.0480   176   177   -20     1
   178    0.5979    0.0000    0.1317    0.2633   89.9678    0.0000    0.0480     2   178   179     1
   179    0.5980    0.0000    0.3950    0.2633   90.0000    0.0000    0.0480   178   179   180     1
   180    0.5979    0.0000    0.6583    0.2633   89.9678  180.0000    0.0480   179   180   -19     1
   181    0.8970    0.0000    0.1317    0.2633   90.0000    0.0000    0.0480     0   181   182     1
   182    0.8970    0.0000    0.3950    0.2633   90.0000    0.0000    0.0480   181   182   183     1
   183    0.8970    0.0000    0.6583    0.2633   90.0000    0.0000    0.0480   182   183     0     1
   184    1.1960    0.0000    0.1317    0.2633   90.0000    0.0000    0.0480     0   184   185     1
   185    1.1960    0.0000    0.3950    0.2633   90.0000    0.0000    0.0480   184   185   186     1
   186    1.1960    0.0000    0.6583    0.2633   90.0000    0.0000    0.0480   185   186     0     1
   187    1.4940    0.0000    0.1317    0.2633   90.0000    0.0000    0.0480     0   187   188     1
   188    1.4940    0.0000    0.3950    0.2633   90.0000    0.0000    0.0480   187   188   189     1
   189    1.4940    0.0000    0.6583    0.2633   90.0000    0.0000    0.0480   188   189     0     1
   190    1.7930    0.0000    0.1317    0.2633   90.0000    0.0000    0.0480     0   190   191     1
   191    1.7930    0.0000    0.3950    0.2633   90.0000    0.0000    0.0480   190   191   192     1
   192    1.7930    0.0000    0.6583    0.2633   90.0000    0.0000    0.0480   191   192     0     1
   193    2.0921    0.0000    0.1317    0.2633   89.9678  180.0000    0.0480     7   193   194     1
   194    2.0920    0.0000    0.3950    0.2633   90.0000    0.0000    0.0480   193   194   195     1
   195    2.0921    0.0000    0.6583    0.2633   89.9678    0.0000    0.0480   194   195   -14     1
   196    2.3910    0.0000    0.1317    0.2633   89.9839  180.0000    0.0480     8   196   197     1
   197    2.3910    0.0000    0.3950    0.2633   90.0000    0.0000    0.0480   196   197   198     1
   198    2.3910    0.0000    0.6583    0.2633   89.9839    0.0000    0.0480   197   198   -13     1
   199    3.6965    0.0000    0.2280    0.2872    1.9956  180.0000    0.0480  -233   199   200     1
   200    3.4090    0.0000    0.2380    0.2882    1.9886  180.0000    0.0480   199   200   201     1
   201    3.1215    0.0000    0.2480    0.2872    1.9956  180.0000    0.0480   200   201   202     1
   202    2.8340    0.0000    0.2580    0.2882    1.9886  180.0000    0.0480   201   202  -165     1
   203    3.6965    0.0000    0.4570    0.2877    3.9863  180.0000    0.0480  -236   203   204     1
   204    3.4090    0.0000    0.4770    0.2887    3.9725  180.0000    0.0480   203   204   205     1
   205    3.1215    0.0000    0.4970    0.2877    3.9863  180.0000    0.0480   204   205   206     1
   206    2.8340    0.0000    0.5170    0.2887    3.9725  180.0000    0.0480   205   206  -174     1
   207    3.5530    0.0000    0.1167    0.2333   90.0000    0.0000    0.0480     0   207   208     1
   208    3.5530    0.0000    0.3500    0.2333   90.0000    0.0000    0.0480   207   208   209     1
   209    3.5530    0.0000    0.5833    0.2333   90.0000    0.0000    0.0480   208   209   230     1
   210    3.2650    0.0000    0.1217    0.2433   90.0000    0.0000    0.0480    33   210   211     1
   211    3.2650    0.0000    0.3650    0.2433   90.0000    0.0000    0.0480   210   211   212     1
   212    3.2650    0.0000    0.6083    0.2433   90.0000    0.0000    0.0480   211   212   227     1
   213    2.9780    0.0000    0.1267    0.2533   90.0000    0.0000    0.0480     0   213   214     1
   214    2.9780    0.0000    0.3800    0.2533   90.0000    0.0000    0.0480   213   214   215     1
   215    2.9780    0.0000    0.6333    0.2533   90.0000    0.0000    0.0480   214   215   224     1
   216    2.8340    0.2800    0.7750    0.2896   -5.9469   -0.0000    0.0480    44   216   217     2
   217    3.1215    0.2800    0.7450    0.2886   -5.9674    0.0000    0.0480   224   217   218     2
   218    3.4090    0.2800    0.7150    0.2896   -5.9469    0.0000    0.0480   227   218   219     2
   219    3.6965    0.2800    0.6850    0.2886   -5.9674    0.0000    0.0480   230   219  -241     2
   220    2.8340    0.5600    0.7750    0.2896   -5.9469    0.0000    0.0480    43   220   221     2
   221    3.1215    0.5600    0.7450    0.2886   -5.9674    0.0000    0.0480   225   221   222     2
   222    3.4090    0.5600    0.7150    0.2896   -5.9469    0.0000    0.0480   228   222   223     2
   223    3.6965    0.5600    0.6850    0.2886   -5.9674    0.0000    0.0480   231   223  -244     2
   224    2.9780    0.1400    0.7600    0.2800    0.0000   90.0000    0.0480   215   224   225     2
   225    2.9780    0.4200    0.7600    0.2800    0.0000   90.0000    0.0480   216   225   226     2
   226    2.9780    0.7000    0.7600    0.2800    0.0000   90.0000    0.0480   220   226  -359     2
   227    3.2650    0.1400    0.7300    0.2800    0.0000   90.0000    0.0480    26   227   228     2
   228    3.2650    0.4200    0.7300    0.2800    0.0000   90.0000    0.0480   217   228   229     2
   229    3.2650    0.7000    0.7300    0.2800    0.0000   90.0000    0.0480   221   229  -356     2
   230    3.5530    0.1400    0.7000    0.2800    0.0000   90.0000    0.0480   209   230   231     2
   231    3.5530    0.4200    0.7000    0.2800    0.0000   90.0000    0.0480   218   231   232     2
   232    3.5530    0.7000    0.7000    0.2800    0.0000   90.0000    0.0480   222   232  -353     2
   233    3.8400    0.1400    0.2230    0.2800    0.0000   90.0000    0.0480  -199   233   234     3
   234    3.8400    0.4200    0.2230    0.2800    0.0000   90.0000    0.0480   233   234   235     3
   235    3.8400    0.7000    0.2230    0.2800    0.0000   90.0000    0.0480   234   235   360     3
   236    3.8400    0.1400    0.4470    0.2800    0.0000   90.0000    0.0480  -203   236   237     3
   237    3.8400    0.4200    0.4470    0.2800    0.0000   90.0000    0.0480   236   237   238     3
   238    3.8400    0.7000    0.4470    0.2800    0.0000   90.0000    0.0480   237   238   363     3
   239    3.8400    0.2800    0.1117    0.2233   90.0000   90.0000    0.0480    46   239   240     3
   240    3.8400    0.2800    0.3350    0.2233   90.0000    0.0000    0.0480   239   240   241     3
   241    3.8400    0.2800    0.5583    0.2233   90.0000    0.0000    0.0480   240   241   -36     3
   242    3.8400    0.5600    0.1117    0.2233   90.0000   90.0000    0.0480    47   242   243     3
   243    3.8400    0.5600    0.3350    0.2233   90.0000    0.0000    0.0480   242   243   244     3
   244    3.8400    0.5600    0.5583    0.2233   90.0000    0.0000    0.0480   243   244   -37     3
   245    0.6185    0.5600    1.2500    0.2770    0.0000    0.0000    0.0480    68   245   246     4
   246    0.8950    0.5600    1.2500    0.2760    0.0000    0.0000    0.0480   257   246   247     4
   247    1.1715    0.5600    1.2500    0.2770    0.0000    0.0000    0.0480   260   247   248     4
   248    1.4485    0.5600    1.2500    0.2770    0.0000    0.0000    0.0480   263   248   249     4
   249    1.7250    0.5600    1.2500    0.2760    0.0000    0.0000    0.0480   266   249   250     4
   250    2.0015    0.5600    1.2500    0.2770    0.0000    0.0000    0.0480   269   250   -58     4
   251    0.6185    0.2800    1.2500    0.2770    0.0000    0.0000    0.0480    67   251   252     4
   252    0.8950    0.2800    1.2500    0.2760    0.0000    0.0000    0.0480   258   252   253     4
   253    1.1715    0.2800    1.2500    0.2770    0.0000    0.0000    0.0480   261   253   254     4
   254    1.4485    0.2800    1.2500    0.2770    0.0000    0.0000    0.0480   264   254   255     4
   255    1.7250    0.2800    1.2500    0.2760    0.0000    0.0000    0.0480   267   255   256     4
   256    2.0015    0.2800    1.2500    0.2770    0.0000    0.0000    0.0480   270   256   -59     4
   257    0.7570    0.7000    1.2500    0.2800    0.0000  -90.0000    0.0480  -384   257   258     4
   258    0.7570    0.4200    1.2500    0.2800    0.0000  -90.0000    0.0480   245   258   259     4
   259    0.7570    0.1400    1.2500    0.2800    0.0000  -90.0000    0.0480   251   259     0     4
   260    1.0330    0.7000    1.2500    0.2800    0.0000  -90.0000    0.0480  -387   260   261     4
   261    1.0330    0.4200    1.2500    0.2800    0.0000  -90.0000    0.0480   246   261   262     4
   262    1.0330    0.1400    1.2500    0.2800    0.0000  -90.0000    0.0480   252   262     0     4
   263    1.3100    0.7000    1.2500    0.2800    0.0000  -90.0000    0.0480  -390   263   264     4
   264    1.3100    0.4200    1.2500    0.2800    0.0000  -90.0000    0.0480   247   264   265     4
   265    1.3100    0.1400    1.2500    0.2800    0.0000  -90.0000    0.0480   253   265   -63     4
   266    1.5870    0.7000    1.2500    0.2800    0.0000  -90.0000    0.0480  -393   266   267     4
   267    1.5870    0.4200    1.2500    0.2800    0.0000  -90.0000    0.0480   248   267   268     4
   268    1.5870    0.1400    1.2500    0.2800    0.0000  -90.0000    0.0480   254   268     0     4
   269    1.8630    0.7000    1.2500    0.2800    0.0000  -90.0000    0.0480  -396   269   270     4
   270    1.8630    0.4200    1.2500    0.2800    0.0000  -90.0000    0.0480   249   270   271     4
   271    1.8630    0.1400    1.2500    0.2800    0.0000  -90.0000    0.0480   255   271     0     4
   272    0.0000    0.1400    0.2630    0.2800    0.0000   90.0000    0.0480  -157   272   273     5
   273    0.0000    0.4200    0.2630    0.2800    0.0000   90.0000    0.0480   272   273   274     5
   274    0.0000    0.7000    0.2630    0.2800    0.0000   90.0000    0.0480   273   274  -401     5
   275    0.0000    0.1400    0.5270    0.2800    0.0000   90.0000    0.0480  -166   275   276     5
   276    0.0000    0.4200    0.5270    0.2800    0.0000   90.0000    0.0480   275   276   277     5
   277    0.0000    0.7000    0.5270    0.2800    0.0000   90.0000    0.0480   276   277  -404     5
   278    0.0000    0.2800    0.1317    0.2633   90.0000   90.0000    0.0480    70   278   279     5
   279    0.0000    0.2800    0.3950    0.2633   90.0000    0.0000    0.0480   278   279   280     5
   280    0.0000    0.2800    0.6583    0.2633   90.0000   90.0000    0.0480   279   280   -77     5
   281    0.0000    0.5600    0.1317    0.2633   90.0000   90.0000    0.0480    71   281   282     5
   282    0.0000    0.5600    0.3950    0.2633   90.0000    0.0000    0.0480   281   282   283     5
   283    0.0000    0.5600    0.6583    0.2633   90.0000    0.0000    0.0480   282   283   -76     5
   284    0.1495    1.6800    0.5270    0.2990    0.0000    0.0000    0.0480  -402   284   285     9
   285    0.4485    1.6800    0.5270    0.2990    0.0000    0.0000    0.0480   284   285   286     9
   286    0.7475    1.6800    0.5270    0.2990    0.0000    0.0000    0.0480   285   286   287     9
   287    1.0465    1.6800    0.5270    0.2990    0.0000    0.0000    0.0480   286   287   288     9
   288    1.3450    1.6800    0.5270    0.2980    0.0000    0.0000    0.0480   287   288   289     9
   289    1.6435    1.6800    0.5270    0.2990    0.0000    0.0000    0.0480   288   289   290     9
   290    1.9425    1.6800    0.5270    0.2990    0.0000    0.0000    0.0480   289   290   291     9
   291    2.2415    1.6800    0.5270    0.2990    0.0000    0.0000    0.0480   290   291   292     9
   292    2.5405    1.6800    0.5270    0.2990    0.0000    0.0000    0.0480   291   292   330     9
   293    0.1495    1.6800    0.2630    0.2990    0.0000    0.0000    0.0480  -399   293   294     9
   294    0.4485    1.6800    0.2630    0.2990    0.0000    0.0000    0.0480   293   294   295     9
   295    0.7475    1.6800    0.2630    0.2990    0.0000    0.0000    0.0480   294   295   296     9
   296    1.0465    1.6800    0.2630    0.2990    0.0000    0.0000    0.0480   295   296   297     9
   297    1.3450    1.6800    0.2630    0.2980    0.0000    0.0000    0.0480   296   297   298     9
   298    1.6435    1.6800    0.2630    0.2990    0.0000    0.0000    0.0480   297   298   299     9
   299    1.9425    1.6800    0.2630    0.2990    0.0000    0.0000    0.0480   298   299   300     9
   300    2.2415    1.6800    0.2630    0.2990    0.0000    0.0000    0.0480   299   300   301     9
   301    2.5405    1.6800    0.2630    0.2990    0.0000    0.0000    0.0480   300   301   326     9
   302    0.2990    1.6800    0.6583    0.2633  -89.9839    0.0000    0.0480    90   302   303     9
   303    0.2990    1.6800    0.3950    0.2633  -90.0000    0.0000    0.0480   302   303   304     9
   304    0.2990    1.6800    0.1317    0.2633  -89.9839  180.0000    0.0480   303   304  -109     9
   305    0.5979    1.6800    0.6583    0.2633  -89.9678    0.0000    0.0480    91   305   306     9
   306    0.5980    1.6800    0.3950    0.2633  -90.0000    0.0000    0.0480   305   306   307     9
   307    0.5979    1.6800    0.1317    0.2633  -89.9678  180.0000    0.0480   306   307  -108     9
   308    0.8970    1.6800    0.6583    0.2633  -90.0000    0.0000    0.0480     0   308   309     9
   309    0.8970    1.6800    0.3950    0.2633  -90.0000    0.0000    0.0480   308   309   310     9
   310    0.8970    1.6800    0.1317    0.2633  -90.0000    0.0000    0.0480   309   310     0     9
   311    1.1960    1.6800    0.6583    0.2633  -90.0000    0.0000    0.0480     0   311   312     9
   312    1.1960    1.6800    0.3950    0.2633  -90.0000    0.0000    0.0480   311   312   313     9
   313    1.1960    1.6800    0.1317    0.2633  -90.0000    0.0000    0.0480   312   313     0     9
   314    1.4940    1.6800    0.6583    0.2633  -90.0000    0.0000    0.0480     0   314   315     9
   315    1.4940    1.6800    0.3950    0.2633  -90.0000    0.0000    0.0480   314   315   316     9
   316    1.4940    1.6800    0.1317    0.2633  -90.0000    0.0000    0.0480   315   316     0     9
   317    1.7930    1.6800    0.6583    0.2633  -90.0000    0.0000    0.0480     0   317   318     9
   318    1.7930    1.6800    0.3950    0.2633  -90.0000    0.0000    0.0480   317   318   319     9
   319    1.7930    1.6800    0.1317    0.2633  -90.0000    0.0000    0.0480   318   319     0     9
   320    2.0921    1.6800    0.6583    0.2633  -89.9678  180.0000    0.0480    96   320   321     9
   321    2.0920    1.6800    0.3950    0.2633  -90.0000    0.0000    0.0480   320   321   322     9
   322    2.0921    1.6800    0.1317    0.2633  -89.9678    0.0000    0.0480   321   322  -103     9
   323    2.3910    1.6800    0.6583    0.2633  -89.9839  180.0000    0.0480    97   323   324     9
   324    2.3910    1.6800    0.3950    0.2633  -90.0000    0.0000    0.0480   323   324   325     9
   325    2.3910    1.6800    0.1317    0.2633  -89.9839    0.0000    0.0480   324   325  -102     9
   326    2.8340    1.6800    0.2580    0.2882   -1.9886    0.0000    0.0480   301   326   327    10
   327    3.1215    1.6800    0.2480    0.2872   -1.9956    0.0000    0.0480   326   327   328    10
   328    3.4090    1.6800    0.2380    0.2882   -1.9886    0.0000    0.0480   327   328   329    10
   329    3.6965    1.6800    0.2280    0.2872   -1.9956    0.0000    0.0480   328   329  -362    10
   330    2.8340    1.6800    0.5170    0.2887   -3.9725    0.0000    0.0480   292   330   331    10
   331    3.1215    1.6800    0.4970    0.2877   -3.9863    0.0000    0.0480   330   331   332    10
   332    3.4090    1.6800    0.4770    0.2887   -3.9725    0.0000    0.0480   331   332   333    10
   333    3.6965    1.6800    0.4570    0.2877   -3.9863    0.0000    0.0480   332   333  -365    10
   334    2.9780    1.6800    0.1267    0.2533   90.0000    0.0000    0.0480     0   334   335    10
   335    2.9780    1.6800    0.3800    0.2533   90.0000    0.0000    0.0480   334   335   336    10
   336    2.9780    1.6800    0.6333    0.2533   90.0000    0.0000    0.0480   335   336   357    10
   337    3.2650    1.6800    0.1217    0.2433   90.0000    0.0000    0.0480   112   337   338    10
   338    3.2650    1.6800    0.3650    0.2433   90.0000    0.0000    0.0480   337   338   339    10
   339    3.2650    1.6800    0.6083    0.2433   90.0000    0.0000    0.0480   338   339   354    10
   340    3.5530    1.6800    0.1167    0.2333   90.0000    0.0000    0.0480     0   340   341    10
   341    3.5530    1.6800    0.3500    0.2333   90.0000    0.0000    0.0480   340   341   342    10
   342    3.5530    1.6800    0.5833    0.2333   90.0000    0.0000    0.0480   341   342   351    10
   343    3.6965    1.4000    0.6850    0.2886    5.9674  180.0000    0.0480   371   343   344    11
   344    3.4090    1.4000    0.7150    0.2896    5.9469  180.0000    0.0480   351   344   345    11
   345    3.1215    1.4000    0.7450    0.2886    5.9674  180.0000    0.0480   354   345   346    11
   346    2.8340    1.4000    0.7750    0.2896    5.9469 -180.0000    0.0480   357   346  -122    11
   347    3.6965    1.1200    0.6850    0.2886    5.9674  180.0000    0.0480   368   347   348    11
   348    3.4090    1.1200    0.7150    0.2896    5.9469  180.0000    0.0480   352   348   349    11
   349    3.1215    1.1200    0.7450    0.2886    5.9674  180.0000    0.0480   355   349   350    11
   350    2.8340    1.1200    0.7750    0.2896    5.9469 -180.0000    0.0480   358   350  -123    11
   351    3.5530    1.5400    0.7000    0.2800    0.0000  -90.0000    0.0480   342   351   352    11
   352    3.5530    1.2600    0.7000    0.2800    0.0000  -90.0000    0.0480   343   352   353    11
   353    3.5530    0.9800    0.7000    0.2800    0.0000  -90.0000    0.0480   347   353  -232    11
   354    3.2650    1.5400    0.7300    0.2800   -0.0000  -90.0000    0.0480   119   354   355    11
   355    3.2650    1.2600    0.7300    0.2800    0.0000  -90.0000    0.0480   344   355   356    11
   356    3.2650    0.9800    0.7300    0.2800    0.0000  -90.0000    0.0480   348   356   -40    11
   357    2.9780    1.5400    0.7600    0.2800    0.0000  -90.0000    0.0480   336   357   358    11
   358    2.9780    1.2600    0.7600    0.2800    0.0000  -90.0000    0.0480   345   358   359    11
   359    2.9780    0.9800    0.7600    0.2800    0.0000  -90.0000    0.0480   349   359  -226    11
   360    3.8400    0.9800    0.2230    0.2800    0.0000   90.0000    0.0480   235   360   361    12
   361    3.8400    1.2600    0.2230    0.2800    0.0000   90.0000    0.0480   360   361   362    12
   362    3.8400    1.5400    0.2230    0.2800    0.0000   90.0000    0.0480   361   362  -329    12
   363    3.8400    0.9800    0.4470    0.2800    0.0000   90.0000    0.0480   238   363   364    12
   364    3.8400    1.2600    0.4470    0.2800    0.0000   90.0000    0.0480   363   364   365    12
   365    3.8400    1.5400    0.4470    0.2800    0.0000   90.0000    0.0480   364   365  -333    12
   366    3.8400    1.1200    0.1117    0.2233   90.0000   90.0000    0.0480   128   366   367    12
   367    3.8400    1.1200    0.3350    0.2233   90.0000    0.0000    0.0480   366   367   368    12
   368    3.8400    1.1200    0.5583    0.2233   90.0000    0.0000    0.0480   367   368  -125    12
   369    3.8400    1.4000    0.1117    0.2233   90.0000   90.0000    0.0480   129   369   370    12
   370    3.8400    1.4000    0.3350    0.2233   90.0000    0.0000    0.0480   369   370   371    12
   371    3.8400    1.4000    0.5583    0.2233   90.0000    0.0000    0.0480   370   371  -126    12
   372    0.6185    1.1200    1.2500    0.2770    0.0000    0.0000    0.0480   141   372   373    13
   373    0.8950    1.1200    1.2500    0.2760    0.0000    0.0000    0.0480   384   373   374    13
   374    1.1715    1.1200    1.2500    0.2770    0.0000    0.0000    0.0480   387   374   375    13
   375    1.4485    1.1200    1.2500    0.2770    0.0000    0.0000    0.0480   390   375   376    13
   376    1.7250    1.1200    1.2500    0.2760    0.0000    0.0000    0.0480   393   376   377    13
   377    2.0015    1.1200    1.2500    0.2770    0.0000   -0.0000    0.0480   396   377  -131    13
   378    0.6185    1.4000    1.2500    0.2770    0.0000    0.0000    0.0480   140   378   379    13
   379    0.8950    1.4000    1.2500    0.2760    0.0000    0.0000    0.0480   385   379   380    13
   380    1.1715    1.4000    1.2500    0.2770    0.0000    0.0000    0.0480   388   380   381    13
   381    1.4485    1.4000    1.2500    0.2770    0.0000    0.0000    0.0480   391   381   382    13
   382    1.7250    1.4000    1.2500    0.2760    0.0000    0.0000    0.0480   394   382   383    13
   383    2.0015    1.4000    1.2500    0.2770    0.0000   -0.0000    0.0480   397   383  -132    13
   384    0.7570    0.9800    1.2500    0.2800    0.0000   90.0000    0.0480  -257   384   385    13
   385    0.7570    1.2600    1.2500    0.2800    0.0000   90.0000    0.0480   372   385   386    13
   386    0.7570    1.5400    1.2500    0.2800    0.0000   90.0000    0.0480   378   386     0    13
   387    1.0330    0.9800    1.2500    0.2800    0.0000   90.0000    0.0480  -260   387   388    13
   388    1.0330    1.2600    1.2500    0.2800    0.0000   90.0000    0.0480   373   388   389    13
   389    1.0330    1.5400    1.2500    0.2800    0.0000   90.0000    0.0480   379   389     0    13
   390    1.3100    0.9800    1.2500    0.2800    0.0000   90.0000    0.0480  -411   390   391    13
   391    1.3100    1.2600    1.2500    0.2800    0.0000   90.0000    0.0480   374   391   392    13
   392    1.3100    1.5400    1.2500    0.2800    0.0000   90.0000    0.0480   380   392  -136    13
   393    1.5870    0.9800    1.2500    0.2800    0.0000   90.0000    0.0480  -266   393   394    13
   394    1.5870    1.2600    1.2500    0.2800    0.0000   90.0000    0.0480   375   394   395    13
   395    1.5870    1.5400    1.2500    0.2800    0.0000   90.0000    0.0480   381   395     0    13
   396    1.8630    0.9800    1.2500    0.2800    0.0000   90.0000    0.0480  -269   396   397    13
   397    1.8630    1.2600    1.2500    0.2800    0.0000   90.0000    0.0480   376   397   398    13
   398    1.8630    1.5400    1.2500    0.2800    0.0000   90.0000    0.0480   382   398     0    13
   399   -0.0000    1.5400    0.2630    0.2800    0.0000  -90.0000    0.0480  -293   399   400    14
   400   -0.0000    1.2600    0.2630    0.2800    0.0000  -90.0000    0.0480   399   400   401    14
   401    0.0000    0.9800    0.2630    0.2800    0.0000  -90.0000    0.0480   400   401  -274    14
   402   -0.0000    1.5400    0.5270    0.2800    0.0000  -90.0000    0.0480  -284   402   403    14
   403   -0.0000    1.2600    0.5270    0.2800    0.0000  -90.0000    0.0480   402   403   404    14
   404    0.0000    0.9800    0.5270    0.2800    0.0000  -90.0000    0.0480   403   404  -277    14
   405    0.0000    1.4000    0.1317    0.2633   90.0000   90.0000    0.0480   143   405   406    14
   406    0.0000    1.4000    0.3950    0.2633   90.0000    0.0000    0.0480   405   406   407    14
   407    0.0000    1.4000    0.6583    0.2633   90.0000  -90.0000    0.0480   406   407  -147    14
   408    0.0000    1.1200    0.1317    0.2633   90.0000   90.0000    0.0480   144   408   409    14
   409    0.0000    1.1200    0.3950    0.2633   90.0000    0.0000    0.0480   408   409   410    14
   410    0.0000    1.1200    0.6583    0.2633   90.0000  -90.0000    0.0480   409   410  -146    14
   411    1.3100    0.8400    1.4596    0.4192   90.0000  -90.0000    0.0050    54   411   412    18
   412    1.3100    0.8400    1.8788    0.4192   90.0000    0.0000    0.0050   411   412   413    18
   413    1.3100    0.8400    2.2981    0.4192   90.0000    0.0000    0.0050   412   413   414    18
   414    1.3100    0.8400    2.7173    0.4192   90.0000    0.0000    0.0050   413   414   415    18
   415    1.3100    0.8400    3.1365    0.4192   90.0000    0.0000    0.0050   414   415   416    18
   416    1.3100    0.8400    3.5558    0.4192   90.0000    0.0000    0.0050   415   416   417    18
   417    1.3100    0.8400    3.9750    0.4192   90.0000    0.0000    0.0050   416   417   418    18
   418    1.3100    0.8400    4.3942    0.4192   90.0000    0.0000    0.0050   417   418   419    18
   419    1.3100    0.8400    4.8135    0.4192   90.0000    0.0000    0.0050   418   419   420    18
   420    1.3100    0.8400    5.2327    0.4192   90.0000    0.0000    0.0050   419   420   421    18
   421    1.3100    0.8400    5.6519    0.4192   90.0000    0.0000    0.0050   420   421   422    18
   422    1.3100    0.8400    6.0712    0.4192   90.0000    0.0000    0.0050   421   422   423    18
   423    1.3100    0.8400    6.4904    0.4192   90.0000    0.0000    0.0050   422   423     0    18



  DATA CARD No:   1 FR   0    11     0     0  1.30000E+01  2.00000E-01  0.00000E+00  0.00000E+00  0.00000E+00  0.00000E+00
  DATA CARD No:   2 EX   0    18     1     0  1.00000E+00  0.00000E+00  0.00000E+00  0.00000E+00  0.00000E+00  0.00000E+00
  DATA CARD No:   3 NH   0     0     0     0  0.00000E+00  0.00000E+00  0.00000E+00  0.00000E+00  0.00000E+00  0.00000E+00
  DATA CARD No:   4 NE   0     1    16    10  1.31000E+00 -6.60000E+00  5.00000E-01  0.00000E+00  1.00000E+00  1.00000E+00

  WHEN MULTIPLE FREQUENCIES ARE REQUESTED, ONLY ONE NEAR FIELD CARD CAN BE USED -
  LAST CARD READ WILL BE USED
  DATA CARD No:   5 RP   0    19    37  1000  0.00000E+00  0.00000E+00  5.00000E+00  1.00000E+01  0.00000E+00  0.00000E+00


                               --------- FREQUENCY --------
                                FREQUENCY : 1.3000E+01 MHz
                                WAVELENGTH: 2.3062E+01 Mtr

                        APPROXIMATE INTEGRATION EMPLOYED FOR SEGMENTS 
                        THAT ARE MORE THAN 1.000 WAVELENGTHS APART


                          ------ STRUCTURE IMPEDANCE LOADING ------
                                 THIS STRUCTURE IS NOT LOADED


                            -------- ANTENNA ENVIRONMENT --------
                            FREE SPACE


                             ---------- MATRIX TIMING ----------
                               FILL: 90 msec  FACTOR: 60 msec


                        --------- ANTENNA INPUT PARAMETERS ---------
  TAG   SEG       VOLTAGE (VOLTS)         CURRENT (AMPS)         IMPEDANCE (OHMS)        ADMITTANCE (MHOS)     POWER
  No:   No:     REAL      IMAGINARY     REAL      IMAGINARY     REAL      IMAGINARY    REAL       IMAGINARY   (WATTS)
   18   411  1.0000E+00  0.0000E+00  6.8979E-03  1.4105E-02  2.7979E+01 -5.7214E+01  6.8979E-03  1.4105E-02  3.4489E-03


                           -------- CURRENTS AND LOCATION --------
                                  DISTANCES IN WAVELENGTHS

   SEG  TAG    COORDINATES OF SEGM CENTER     SEGM    ------------- CURRENT (AMPS) -------------
   No:  No:       X         Y         Z      LENGTH     REAL      IMAGINARY    MAGN        PHASE
     1    1    0.0065    0.0000    0.0000   0.01296  1.9673E-04  2.0638E-04  2.8512E-04   46.371
     2    1    0.0194    0.0000    0.0000   0.01296  2.1650E-04  4.5827E-04  5.0684E-04   64.713
     3    1    0.0324    0.0000    0.0000   0.01296 -8.3478E-05 -7.0535E-05  1.0929E-04 -139.804
     4    1    0.0454    0.0000    0.0000   0.01296  1.7729E-06  6.6203E-05  6.6226E-05   88.466
     5    1    0.0583    0.0000    0.0000   0.01296  8.9768E-05  2.0585E-04  2.2457E-04   66.438
     6    1    0.0713    0.0000    0.0000   0.01296  1.6792E-04  3.2533E-04  3.6611E-04   62.698
     7    1    0.0842    0.0000    0.0000   0.01296  2.4031E-04  4.3359E-04  4.9573E-04   61.003
     8    1    0.0972    0.0000    0.0000   0.01296  5.1087E-04  9.8473E-04  1.1094E-03   62.580
     9    1    0.1102    0.0000    0.0000   0.01296  5.2339E-04  1.0327E-03  1.1577E-03   63.123
    10    1    0.1166    0.0000    0.0057   0.01142  2.1072E-04  4.2904E-04  4.7799E-04   63.842
    11    1    0.1166    0.0000    0.0171   0.01142  2.0936E-04  4.1238E-04  4.6249E-04   63.084
    12    1    0.1166    0.0000    0.0285   0.01142  2.1357E-04  4.1727E-04  4.6875E-04   62.895
    13    1    0.1102    0.0000    0.0343   0.01296 -1.0659E-03 -1.9554E-03  2.2270E-03 -118.596
    14    1    0.0972    0.0000    0.0343   0.01296 -9.1788E-04 -1.7449E-03  1.9715E-03 -117.747
    15    1    0.0842    0.0000    0.0343   0.01296 -9.6308E-04 -1.9122E-03  2.1411E-03 -116.732
    16    1    0.0713    0.0000    0.0343   0.01296 -8.9894E-04 -1.7891E-03  2.0023E-03 -116.677
    17    1    0.0583    0.0000    0.0343   0.01296 -8.2118E-04 -1.6400E-03  1.8341E-03 -116.598
    18    1    0.0454    0.0000    0.0343   0.01296 -8.0383E-04 -1.6079E-03  1.7976E-03 -116.562
    19    1    0.0324    0.0000    0.0343   0.01296 -7.7772E-04 -1.5575E-03  1.7408E-03 -116.535
    20    1    0.0194    0.0000    0.0343   0.01296 -1.7558E-04 -4.9246E-04  5.2282E-04 -109.623
    21    1    0.0065    0.0000    0.0343   0.01296  1.4554E-04 -1.2489E-04  1.9178E-04  -40.632
    22    1    0.0000    0.0000    0.0285   0.01142 -4.0630E-04 -1.0531E-03  1.1287E-03 -111.098
    23    1    0.0000    0.0000    0.0171   0.01142 -3.2430E-04 -9.0324E-04  9.5969E-04 -109.750
    24    1    0.0000    0.0000    0.0057   0.01142 -1.9085E-04 -6.5987E-04  6.8692E-04 -106.131
    25    1    0.1229    0.0000    0.0336   0.01253 -2.5721E-04 -4.1956E-04  4.9212E-04 -121.510
    26    1    0.1353    0.0000    0.0323   0.01253 -2.4464E-04 -3.9086E-04  4.6111E-04 -122.042
    27    1    0.1478    0.0000    0.0310   0.01253 -2.8028E-05 -3.9882E-05  4.8746E-05 -125.099
    28    1    0.1603    0.0000    0.0297   0.01253  2.3170E-06  2.1250E-05  2.1376E-05   83.777
    29    1    0.1665    0.0000    0.0242   0.00968 -1.3261E-04 -3.2472E-04  3.5076E-04 -112.215
    30    1    0.1665    0.0000    0.0145   0.00968 -1.4323E-04 -3.4567E-04  3.7417E-04 -112.506
    31    1    0.1665    0.0000    0.0048   0.00968 -1.9173E-04 -4.4772E-04  4.8705E-04 -113.183
    32    1    0.1603    0.0000    0.0000   0.01247 -3.9660E-04 -7.1485E-04  8.1750E-04 -119.022
    33    1    0.1478    0.0000    0.0000   0.01247 -3.3433E-04 -6.2994E-04  7.1317E-04 -117.956
    34    1    0.1353    0.0000    0.0000   0.01247 -4.3022E-04 -7.6033E-04  8.7361E-04 -119.503
    35    1    0.1229    0.0000    0.0000   0.01247 -3.7994E-04 -6.9254E-04  7.8991E-04 -118.750
    36    2    0.1665    0.0061    0.0291   0.01214  1.9754E-04  4.6491E-04  5.0514E-04   66.979
    37    2    0.1665    0.0182    0.0291   0.01214  4.4014E-05  7.9202E-05  9.0610E-05   60.938
    38    2    0.1665    0.0304    0.0291   0.01214  3.4237E-05  6.1488E-05  7.0377E-05   60.891
    39    2    0.1603    0.0364    0.0297   0.01253  9.5780E-05  1.2027E-04  1.5375E-04   51.468
    40    2    0.1478    0.0364    0.0310   0.01253  1.0710E-04  1.4431E-04  1.7971E-04   53.418
    41    2    0.1353    0.0364    0.0323   0.01253  1.0093E-04  1.4738E-04  1.7863E-04   55.595
    42    2    0.1229    0.0364    0.0336   0.01253  1.1207E-04  1.7086E-04  2.0434E-04   56.739
    43    2    0.1166    0.0304    0.0343   0.01214  6.7596E-05  1.0936E-04  1.2856E-04   58.279
    44    2    0.1166    0.0182    0.0343   0.01214  1.4123E-04  2.0850E-04  2.5183E-04   55.888
    45    2    0.1166    0.0061    0.0343   0.01214  3.7058E-04  5.2705E-04  6.4429E-04   54.888
    46    3    0.1665    0.0061    0.0000   0.01214  2.8844E-04  3.7942E-04  4.7661E-04   52.758
    47    3    0.1665    0.0182    0.0000   0.01214  1.6300E-04  2.8619E-04  3.2935E-04   60.337
    48    3    0.1665    0.0304    0.0000   0.01214  5.0963E-05  9.0948E-05  1.0425E-04   60.736
    49    3    0.1665    0.0364    0.0048   0.00968  1.6151E-04  2.5307E-04  3.0022E-04   57.454
    50    3    0.1665    0.0364    0.0145   0.00968  5.1134E-05  3.6025E-05  6.2550E-05   35.166
    51    3    0.1665    0.0364    0.0242   0.00968 -7.9465E-06 -7.2781E-05  7.3213E-05  -96.231
    52    4    0.0268    0.0364    0.0542   0.01200  9.0172E-04  1.8311E-03  2.0411E-03   63.782
    53    4    0.0388    0.0364    0.0542   0.01200  8.8935E-04  1.8253E-03  2.0304E-03   64.023
    54    4    0.0508    0.0364    0.0542   0.01200  8.7320E-04  1.8138E-03  2.0130E-03   64.292
    55    4    0.0628    0.0364    0.0542   0.01200 -1.0118E-03 -2.0214E-03  2.2605E-03 -116.591
    56    4    0.0748    0.0364    0.0542   0.01200 -1.0287E-03 -2.0350E-03  2.2803E-03 -116.817
    57    4    0.0868    0.0364    0.0542   0.01200 -1.0418E-03 -2.0445E-03  2.2946E-03 -117.003
    58    4    0.0928    0.0304    0.0542   0.01214 -5.2022E-04 -1.0024E-03  1.1294E-03 -117.428
    59    4    0.0928    0.0182    0.0542   0.01214 -6.1993E-04 -1.1576E-03  1.3131E-03 -118.171
    60    4    0.0928    0.0061    0.0542   0.01214 -2.0419E-03 -3.6486E-03  4.1811E-03 -119.233
    61    4    0.0868    0.0000    0.0542   0.01200 -5.1798E-05 -7.6868E-05  9.2691E-05 -123.974
    62    4    0.0748    0.0000    0.0542   0.01200 -2.0643E-05  7.2187E-07  2.0655E-05  177.997
    63    4    0.0628    0.0000    0.0542   0.01200  1.6459E-05  8.9290E-05  9.0794E-05   79.556
    64    4    0.0508    0.0000    0.0542   0.01200 -3.6736E-04 -5.3263E-04  6.4703E-04 -124.594
    65    4    0.0388    0.0000    0.0542   0.01200 -3.6298E-04 -4.9574E-04  6.1442E-04 -126.211
    66    4    0.0268    0.0000    0.0542   0.01200 -3.5374E-04 -4.5041E-04  5.7271E-04 -128.145
    67    4    0.0208    0.0061    0.0542   0.01214  1.0269E-03  2.0043E-03  2.2520E-03   62.871
    68    4    0.0208    0.0182    0.0542   0.01214  4.7894E-04  9.3285E-04  1.0486E-03   62.823
    69    4    0.0208    0.0304    0.0542   0.01214  4.5023E-04  8.9040E-04  9.9776E-04   63.176
    70    5    0.0000    0.0061    0.0000   0.01214 -3.0597E-04 -7.2758E-04  7.8930E-04 -112.808
    71    5    0.0000    0.0182    0.0000   0.01214 -2.6082E-04 -5.0583E-04  5.6911E-04 -117.277
    72    5    0.0000    0.0304    0.0000   0.01214 -9.0494E-05 -1.7196E-04  1.9432E-04 -117.755
    73    5    0.0000    0.0364    0.0057   0.01142 -1.0615E-04 -2.2172E-04  2.4582E-04 -115.582
    74    5    0.0000    0.0364    0.0171   0.01142  9.3967E-05  1.4157E-04  1.6992E-04   56.427
    75    5    0.0000    0.0364    0.0285   0.01142  2.2994E-04  3.8939E-04  4.5221E-04   59.438
    76    5    0.0000    0.0304    0.0343   0.01214  1.3228E-04  2.3965E-04  2.7373E-04   61.103
    77    5    0.0000    0.0182    0.0343   0.01214  3.9708E-04  7.1095E-04  8.1433E-04   60.816
    78    5    0.0000    0.0061    0.0343   0.01214  7.4913E-04  1.2263E-03  1.4370E-03   58.580
    79    6    0.0035    0.0000    0.0376   0.00961  1.3364E-03  2.2506E-03  2.6175E-03   59.298
    80    6    0.0104    0.0000    0.0442   0.00961  1.3531E-03  2.3114E-03  2.6783E-03   59.655
    81    6    0.0173    0.0000    0.0509   0.00961  1.3674E-03  2.3749E-03  2.7404E-03   60.068
    82    7    0.0607    0.0000    0.0392   0.00997 -2.2350E-05 -4.3242E-05  4.8676E-05 -117.333
[...]
   30.00    280.00     -4.94   -13.35    -4.36      0.2330     16.76 RIGHT   3.2944E-01     79.36  1.2513E-01     37.62
   35.00    280.00     -3.73   -13.37    -3.28      0.1983     14.78 RIGHT   3.7875E-01     76.63  1.2484E-01     36.72
   40.00    280.00     -2.70   -13.39    -2.35      0.1694     13.40 RIGHT   4.2623E-01     73.51  1.2454E-01     35.79
   45.00    280.00     -1.83   -13.41    -1.54      0.1451     12.42 RIGHT   4.7141E-01     70.06  1.2424E-01     34.84
   50.00    280.00     -1.08   -13.43    -0.84      0.1242     11.69 RIGHT   5.1374E-01     66.33  1.2396E-01     33.88
   55.00    280.00     -0.45   -13.45    -0.24      0.1059     11.16 RIGHT   5.5269E-01     62.35  1.2370E-01     32.92
   60.00    280.00      0.09   -13.47     0.27      0.0895     10.76 RIGHT   5.8767E-01     58.16  1.2345E-01     31.96
   65.00    280.00      0.52   -13.48     0.69      0.0747     10.47 RIGHT   6.1812E-01     53.81  1.2324E-01     31.01
   70.00    280.00      0.87   -13.50     1.03      0.0611     10.27 RIGHT   6.4354E-01     49.33  1.2306E-01     30.08
   75.00    280.00      1.14   -13.51     1.29      0.0483     10.14 RIGHT   6.6345E-01     44.76  1.2291E-01     29.17
   80.00    280.00      1.32   -13.51     1.46      0.0361     10.07 RIGHT   6.7748E-01     40.15  1.2280E-01     28.29
   85.00    280.00      1.42   -13.52     1.56      0.0243     10.06 RIGHT   6.8535E-01     35.52  1.2273E-01     27.45
   90.00    280.00      1.44   -13.52     1.58      0.0128     10.10 RIGHT   6.8690E-01     30.91  1.2270E-01     26.66
    0.00    290.00    -22.44   -13.67   -13.13      0.0000     70.00 LINEAR  4.3916E-02     42.20  1.2066E-01     42.20
    5.00    290.00    -16.43   -13.68   -11.83      0.2380     55.01 RIGHT   8.7802E-02     70.53  1.2042E-01     42.30
   10.00    290.00    -12.46   -13.70   -10.03      0.3216     39.97 RIGHT   1.3861E-01     78.41  1.2014E-01     42.34
   15.00    290.00     -9.70   -13.72    -8.25      0.3096     29.16 RIGHT   1.9058E-01     81.14  1.1984E-01     42.31
   20.00    290.00     -7.60   -13.75    -6.66      0.2709     22.56 RIGHT   2.4253E-01     81.76  1.1952E-01     42.22
   25.00    290.00     -5.93   -13.77    -5.27      0.2315     18.49 RIGHT   2.9390E-01     81.19  1.1918E-01     42.07
   30.00    290.00     -4.56   -13.80    -4.07      0.1972     15.86 RIGHT   3.4425E-01     79.83  1.1884E-01     41.85
   35.00    290.00     -3.41   -13.82    -3.03      0.1682     14.06 RIGHT   3.9314E-01     77.86  1.1851E-01     41.58
   40.00    290.00     -2.43   -13.85    -2.12      0.1435     12.80 RIGHT   4.4008E-01     75.40  1.1818E-01     41.24
   45.00    290.00     -1.59   -13.87    -1.34      0.1224     11.88 RIGHT   4.8456E-01     72.52  1.1787E-01     40.84
   50.00    290.00     -0.88   -13.89    -0.67      0.1040     11.20 RIGHT   5.2604E-01     69.28  1.1759E-01     40.38
   55.00    290.00     -0.27   -13.91    -0.09      0.0876     10.69 RIGHT   5.6393E-01     65.73  1.1733E-01     39.87
   60.00    290.00      0.23   -13.93     0.40      0.0729     10.31 RIGHT   5.9769E-01     61.91  1.1711E-01     39.31
   65.00    290.00      0.64   -13.94     0.79      0.0594     10.03 RIGHT   6.2674E-01     57.86  1.1693E-01     38.71
   70.00    290.00      0.97   -13.95     1.11      0.0468      9.83 RIGHT   6.5059E-01     53.63  1.1679E-01     38.06
   75.00    290.00      1.21   -13.96     1.34      0.0349      9.70 RIGHT   6.6881E-01     49.26  1.1669E-01     37.37
   80.00    290.00      1.37   -13.96     1.49      0.0235      9.63 RIGHT   6.8105E-01     44.77  1.1663E-01     36.66
   85.00    290.00      1.44   -13.96     1.57      0.0124      9.61 RIGHT   6.8707E-01     40.21  1.1662E-01     35.92
   90.00    290.00      1.44   -13.96     1.56      0.0014      9.64 RIGHT   6.8675E-01     35.63  1.1665E-01     35.16
    0.00    300.00    -19.15   -14.38   -13.13      0.0000     60.00 LINEAR  6.4201E-02     42.20  1.1120E-01     42.20
    5.00    300.00    -14.78   -14.40   -11.58      0.2027     46.38 RIGHT   1.0609E-01     65.98  1.1089E-01     43.03
   10.00    300.00    -11.47   -14.43    -9.69      0.2628     33.93 RIGHT   1.5541E-01     75.16  1.1054E-01     43.80
   15.00    300.00     -9.00   -14.46    -7.91      0.2518     25.38 RIGHT   2.0658E-01     79.26  1.1018E-01     44.49
   20.00    300.00     -7.06   -14.48    -6.34      0.2216     20.05 RIGHT   2.5803E-01     81.00  1.0981E-01     45.10
   25.00    300.00     -5.50   -14.51    -4.98      0.1905     16.66 RIGHT   3.0900E-01     81.38  1.0943E-01     45.64
   30.00    300.00     -4.20   -14.54    -3.81      0.1627     14.41 RIGHT   3.5894E-01     80.82  1.0906E-01     46.08
   35.00    300.00     -3.10   -14.57    -2.80      0.1387     12.85 RIGHT   4.0733E-01     79.54  1.0871E-01     46.43
   40.00    300.00     -2.16   -14.60    -1.92      0.1181     11.74 RIGHT   4.5366E-01     77.69  1.0837E-01     46.68
   45.00    300.00     -1.36   -14.62    -1.16      0.1001     10.92 RIGHT   4.9738E-01     75.35  1.0806E-01     46.83
   50.00    300.00     -0.68   -14.65    -0.51      0.0841     10.31 RIGHT   5.3792E-01     72.57  1.0779E-01     46.87
   55.00    300.00     -0.11   -14.66     0.04      0.0699      9.85 RIGHT   5.7470E-01     69.43  1.0756E-01     46.81
   60.00    300.00      0.37   -14.68     0.50      0.0569      9.51 RIGHT   6.0717E-01     65.96  1.0737E-01     46.65
   65.00    300.00      0.76   -14.69     0.88      0.0448      9.25 RIGHT   6.3478E-01     62.20  1.0722E-01     46.39
   70.00    300.00      1.05   -14.70     1.17      0.0335      9.07 RIGHT   6.5706E-01     58.20  1.0712E-01     46.02
   75.00    300.00      1.27   -14.70     1.38      0.0227      8.94 RIGHT   6.7361E-01     53.99  1.0707E-01     45.56
   80.00    300.00      1.41   -14.70     1.51      0.0123      8.87 RIGHT   6.8410E-01     49.62  1.0707E-01     45.00
   85.00    300.00      1.46   -14.70     1.56      0.0020      8.84 RIGHT   6.8835E-01     45.12  1.0710E-01     44.35
   90.00    300.00      1.43   -14.69     1.54      0.0082      8.86 LEFT    6.8628E-01     40.53  1.0718E-01     43.62
    0.00    310.00    -16.96   -15.44   -13.13      0.0000     50.00 LINEAR  8.2536E-02     42.20  9.8362E-02     42.20
    5.00    310.00    -13.49   -15.47   -11.36      0.1676     38.13 RIGHT   1.2314E-01     63.28  9.8010E-02     43.74
   10.00    310.00    -10.62   -15.51    -9.40      0.2104     28.09 RIGHT   1.7127E-01     73.13  9.7636E-02     45.20
   15.00    310.00     -8.38   -15.54    -7.62      0.2006     21.38 RIGHT   2.2171E-01     78.21  9.7250E-02     46.59
   20.00    310.00     -6.58   -15.57    -6.07      0.1771     17.15 RIGHT   2.7267E-01     80.87  9.6860E-02     47.89
   25.00    310.00     -5.11   -15.61    -4.74      0.1526     14.40 RIGHT   3.2322E-01     82.05  9.6476E-02     49.08
   30.00    310.00     -3.87   -15.64    -3.59      0.1304     12.55 RIGHT   3.7273E-01     82.19  9.6106E-02     50.16
   35.00    310.00     -2.82   -15.67    -2.60      0.1110     11.25 RIGHT   4.2062E-01     81.55  9.5758E-02     51.11
   40.00    310.00     -1.92   -15.70    -1.75      0.0940     10.30 RIGHT   4.6632E-01     80.26  9.5438E-02     51.93
   45.00    310.00     -1.16   -15.73    -1.01      0.0791      9.61 RIGHT   5.0926E-01     78.41  9.5154E-02     52.61
   50.00    310.00     -0.51   -15.75    -0.38      0.0657      9.09 RIGHT   5.4886E-01     76.07  9.4910E-02     53.14
   55.00    310.00      0.04   -15.77     0.15      0.0536      8.69 RIGHT   5.8453E-01     73.30  9.4710E-02     53.52
   60.00    310.00      0.49   -15.78     0.59      0.0425      8.40 RIGHT   6.1574E-01     70.15  9.4555E-02     53.74
   65.00    310.00      0.85   -15.79     0.95      0.0321      8.17 RIGHT   6.4195E-01     66.65  9.4448E-02     53.81
   70.00    310.00      1.13   -15.80     1.22      0.0222      8.01 RIGHT   6.6272E-01     62.86  9.4388E-02     53.71
   75.00    310.00      1.32   -15.80     1.41      0.0127      7.90 RIGHT   6.7769E-01     58.80  9.4375E-02     53.46
   80.00    310.00      1.44   -15.80     1.52      0.0035      7.83 RIGHT   6.8657E-01     54.53  9.4406E-02     53.05
   85.00    310.00      1.47   -15.79     1.55      0.0057      7.80 LEFT    6.8922E-01     50.07  9.4479E-02     52.49
   90.00    310.00      1.42   -15.78     1.51      0.0149      7.81 LEFT    6.8558E-01     45.47  9.4589E-02     51.78
    0.00    320.00    -15.44   -16.96   -13.13      0.0000     40.00 LINEAR  9.8362E-02     42.20  8.2536E-02     42.20
    5.00    320.00    -12.49   -17.00   -11.18      0.1329     30.19 RIGHT   1.3811E-01     61.69  8.2186E-02     44.39
   10.00    320.00     -9.94   -17.04    -9.16      0.1630     22.36 RIGHT   1.8533E-01     71.97  8.1822E-02     46.52
   15.00    320.00     -7.87   -17.08    -7.38      0.1547     17.24 RIGHT   2.3516E-01     77.80  8.1451E-02     48.55
   20.00    320.00     -6.18   -17.12    -5.84      0.1367     13.98 RIGHT   2.8569E-01     81.20  8.1082E-02     50.48
   25.00    320.00     -4.77   -17.16    -4.53      0.1178     11.84 RIGHT   3.3587E-01     83.06  8.0724E-02     52.29
   30.00    320.00     -3.59   -17.19    -3.40      0.1006     10.37 RIGHT   3.8497E-01     83.83  8.0384E-02     53.96
   35.00    320.00     -2.58   -17.23    -2.43      0.0854      9.33 RIGHT   4.3238E-01     83.74  8.0070E-02     55.48
   40.00    320.00     -1.72   -17.26    -1.60      0.0719      8.58 RIGHT   4.7748E-01     82.95  7.9787E-02     56.84
   45.00    320.00     -0.98   -17.29    -0.88      0.0599      8.02 RIGHT   5.1968E-01     81.55  7.9542E-02     58.01
   50.00    320.00     -0.36   -17.31    -0.27      0.0492      7.59 RIGHT   5.5839E-01     79.61  7.9337E-02     59.00
   55.00    320.00      0.16   -17.33     0.24      0.0393      7.27 RIGHT   5.9303E-01     77.19  7.9175E-02     59.78
   60.00    320.00      0.59   -17.34     0.66      0.0302      7.03 RIGHT   6.2307E-01     74.32  7.9057E-02     60.36
   65.00    320.00      0.93   -17.35     1.00      0.0216      6.84 RIGHT   6.4801E-01     71.07  7.8985E-02     60.73
   70.00    320.00      1.19   -17.35     1.25      0.0134      6.70 RIGHT   6.6743E-01     67.46  7.8957E-02     60.89
   75.00    320.00      1.37   -17.35     1.42      0.0054      6.61 RIGHT   6.8099E-01     63.54  7.8971E-02     60.83
   80.00    320.00      1.46   -17.34     1.52      0.0024      6.55 LEFT    6.8846E-01     59.34  7.9024E-02     60.56
   85.00    320.00      1.48   -17.33     1.53      0.0102      6.52 LEFT    6.8972E-01     54.91  7.9115E-02     60.08
   90.00    320.00      1.41   -17.32     1.47      0.0181      6.52 LEFT    6.8475E-01     50.28  7.9237E-02     59.39
    0.00    330.00    -14.38   -19.15   -13.13      0.0000     30.00 LINEAR  1.1120E-01     42.20  6.4201E-02     42.20
    5.00    330.00    -11.75   -19.19   -11.03      0.0990     22.47 RIGHT   1.5037E-01     60.78  6.3896E-02     44.98
   10.00    330.00     -9.41   -19.23    -8.98      0.1192     16.71 RIGHT   1.9692E-01     71.40  6.3580E-02     47.70
   15.00    330.00     -7.47   -19.27    -7.19      0.1127     13.00 RIGHT   2.4629E-01     77.82  6.3263E-02     50.31
   20.00    330.00     -5.86   -19.32    -5.67      0.0995     10.63 RIGHT   2.9646E-01     81.84  6.2950E-02     52.81
   25.00    330.00     -4.51   -19.36    -4.37      0.0858      9.05 RIGHT   3.4633E-01     84.28  6.2649E-02     55.18
   30.00    330.00     -3.36   -19.40    -3.26      0.0732      7.96 RIGHT   3.9509E-01     85.58  6.2368E-02     57.38
   35.00    330.00     -2.39   -19.43    -2.30      0.0619      7.19 RIGHT   4.4207E-01     85.98  6.2111E-02     59.41
   40.00    330.00     -1.55   -19.47    -1.48      0.0518      6.62 RIGHT   4.8665E-01     85.63  6.1883E-02     61.24
   45.00    330.00     -0.84   -19.49    -0.78      0.0428      6.20 RIGHT   5.2821E-01     84.63  6.1689E-02     62.86
   50.00    330.00     -0.24   -19.52    -0.19      0.0346      5.88 RIGHT   5.6615E-01     83.04  6.1530E-02     64.25
   55.00    330.00      0.26   -19.53     0.31      0.0271      5.64 RIGHT   5.9991E-01     80.92  6.1410E-02     65.40
   60.00    330.00      0.68   -19.54     0.72      0.0201      5.45 RIGHT   6.2895E-01     78.32  6.1327E-02     66.30
   65.00    330.00      1.00   -19.55     1.04      0.0135      5.31 RIGHT   6.5282E-01     75.27  6.1283E-02     66.94
   70.00    330.00      1.24   -19.55     1.27      0.0071      5.20 RIGHT   6.7110E-01     71.83  6.1276E-02     67.33
   75.00    330.00      1.40   -19.55     1.43      0.0009      5.12 RIGHT   6.8350E-01     68.03  6.1303E-02     67.44
   80.00    330.00      1.48   -19.54     1.51      0.0052      5.07 LEFT    6.8981E-01     63.90  6.1363E-02     67.29
   85.00    330.00      1.48   -19.53     1.51      0.0114      5.05 LEFT    6.8995E-01     59.49  6.1452E-02     66.89
   90.00    330.00      1.40   -19.51     1.44      0.0176      5.04 LEFT    6.8393E-01     54.84  6.1566E-02     66.22
    0.00    340.00    -13.67   -22.44   -13.13      0.0000     20.00 LINEAR  1.2066E-01     42.20  4.3916E-02     42.20
    5.00    340.00    -11.24   -22.49   -10.93      0.0656     14.90 RIGHT   1.5945E-01     60.34  4.3690E-02     45.49
   10.00    340.00     -9.04   -22.54    -8.85      0.0781     11.12 RIGHT   2.0555E-01     71.24  4.3459E-02     48.70
   15.00    340.00     -7.18   -22.58    -7.06      0.0736      8.70 RIGHT   2.5459E-01     78.15  4.3227E-02     51.82
   20.00    340.00     -5.63   -22.63    -5.54      0.0650      7.15 RIGHT   3.0451E-01     82.66  4.3000E-02     54.81
   25.00    340.00     -4.31   -22.67    -4.25      0.0560      6.11 RIGHT   3.5413E-01     85.58  4.2784E-02     57.64
   30.00    340.00     -3.20   -22.71    -3.15      0.0476      5.39 RIGHT   4.0263E-01     87.33  4.2583E-02     60.30
   35.00    340.00     -2.25   -22.75    -2.21      0.0402      4.88 RIGHT   4.4929E-01     88.14  4.2401E-02     62.76
   40.00    340.00     -1.43   -22.78    -1.40      0.0335      4.51 RIGHT   4.9346E-01     88.17  4.2242E-02     65.00
   45.00    340.00     -0.74   -22.81    -0.71      0.0274      4.22 RIGHT   5.3452E-01     87.50  4.2108E-02     67.00
   50.00    340.00     -0.15   -22.83    -0.13      0.0219      4.01 RIGHT   5.7187E-01     86.21  4.2000E-02     68.74
   55.00    340.00      0.34   -22.85     0.36      0.0169      3.85 RIGHT   6.0495E-01     84.36  4.1921E-02     70.20
   60.00    340.00      0.73   -22.86     0.75      0.0121      3.72 RIGHT   6.3324E-01     81.98  4.1870E-02     71.37
   65.00    340.00      1.04   -22.86     1.06      0.0076      3.62 RIGHT   6.5628E-01     79.12  4.1846E-02     72.25
   70.00    340.00      1.27   -22.86     1.29      0.0032      3.55 RIGHT   6.7371E-01     75.82  4.1849E-02     72.82
   75.00    340.00      1.42   -22.86     1.44      0.0010      3.50 LEFT    6.8524E-01     72.12  4.1876E-02     73.09
   80.00    340.00      1.49   -22.85     1.50      0.0053      3.46 LEFT    6.9070E-01     68.05  4.1926E-02     73.05
   85.00    340.00      1.48   -22.83     1.50      0.0095      3.44 LEFT    6.9002E-01     63.67  4.1996E-02     72.70
   90.00    340.00      1.39   -22.81     1.41      0.0139      3.43 LEFT    6.8324E-01     58.99  4.2084E-02     72.05
    0.00    350.00    -13.26   -28.33   -13.13      0.0000     10.00 LINEAR  1.2645E-01     42.20  2.2297E-02     42.20
    5.00    350.00    -10.95   -28.38   -10.87      0.0327      7.43 RIGHT   1.6502E-01     60.21  2.2177E-02     45.89
   10.00    350.00     -8.82   -28.43    -8.77      0.0386      5.55 RIGHT   2.1087E-01     71.39  2.2054E-02     49.51
   15.00    350.00     -7.01   -28.48    -6.98      0.0363      4.36 RIGHT   2.5971E-01     78.66  2.1932E-02     53.02
   20.00    350.00     -5.48   -28.52    -5.46      0.0321      3.59 RIGHT   3.0947E-01     83.56  2.1813E-02     56.40
   25.00    350.00     -4.20   -28.57    -4.18      0.0276      3.08 RIGHT   3.5895E-01     86.86  2.1700E-02     59.61
   30.00    350.00     -3.10   -28.61    -3.09      0.0235      2.72 RIGHT   4.0728E-01     88.96  2.1595E-02     62.64
   35.00    350.00     -2.16   -28.65    -2.15      0.0197      2.47 RIGHT   4.5374E-01     90.11  2.1501E-02     65.44
   40.00    350.00     -1.36   -28.68    -1.35      0.0164      2.28 RIGHT   4.9765E-01     90.43  2.1419E-02     68.01
   45.00    350.00     -0.68   -28.71    -0.67      0.0134      2.14 RIGHT   5.3840E-01     90.04  2.1351E-02     70.31
   50.00    350.00     -0.10   -28.73    -0.09      0.0106      2.03 RIGHT   5.7538E-01     89.00  2.1297E-02     72.32
   55.00    350.00      0.38   -28.75     0.39      0.0081      1.95 RIGHT   6.0802E-01     87.36  2.1258E-02     74.03
   60.00    350.00      0.77   -28.76     0.77      0.0056      1.89 RIGHT   6.3583E-01     85.17  2.1234E-02     75.42
   65.00    350.00      1.07   -28.76     1.08      0.0034      1.84 RIGHT   6.5837E-01     82.46  2.1224E-02     76.49
   70.00    350.00      1.29   -28.76     1.30      0.0011      1.80 RIGHT   6.7526E-01     79.29  2.1228E-02     77.21
   75.00    350.00      1.43   -28.75     1.44      0.0010      1.77 LEFT    6.8626E-01     75.68  2.1244E-02     77.60
   80.00    350.00      1.49   -28.74     1.50      0.0032      1.75 LEFT    6.9120E-01     71.67  2.1272E-02     77.64
   85.00    350.00      1.48   -28.73     1.48      0.0054      1.74 LEFT    6.9002E-01     67.30  2.1311E-02     77.34
   90.00    350.00      1.39   -28.71     1.39      0.0076      1.74 LEFT    6.8278E-01     62.62  2.1358E-02     76.71
    0.00    360.00    -13.13  -162.89   -13.13      0.0000     -0.00 LINEAR  1.2840E-01     42.20  4.1705E-09    178.30
    5.00    360.00    -10.85  -162.95   -10.85      0.0000     -0.00 LINEAR  1.6690E-01     60.33  4.1427E-09    179.29
   10.00    360.00     -8.74  -163.09    -8.74      0.0000     -0.00 LINEAR  2.1267E-01     71.75  4.0779E-09   -180.00
   15.00    360.00     -6.95  -163.30    -6.95      0.0000     -0.00 LINEAR  2.6144E-01     79.30  3.9784E-09   -179.60
   20.00    360.00     -5.44  -163.60    -5.44      0.0000     -0.00 LINEAR  3.1115E-01     84.48  3.8468E-09   -179.52
   25.00    360.00     -4.16  -163.96    -4.16      0.0000     -0.00 LINEAR  3.6058E-01     88.04  3.6866E-09   -179.78
   30.00    360.00     -3.07  -164.41    -3.07      0.0000      0.00 LINEAR  4.0886E-01     90.40  3.5012E-09    179.62
   35.00    360.00     -2.13  -164.94    -2.13      0.0000      0.00 LINEAR  4.5524E-01     91.78  3.2941E-09    178.68
   40.00    360.00     -1.33  -165.56    -1.33      0.0000      0.00 LINEAR  4.9907E-01     92.34  3.0688E-09    177.38
   45.00    360.00     -0.65  -166.27    -0.65      0.0000      0.00 LINEAR  5.3971E-01     92.15  2.8282E-09    175.74
   50.00    360.00     -0.08  -167.08    -0.08      0.0000      0.00 LINEAR  5.7655E-01     91.30  2.5749E-09    173.75
   55.00    360.00      0.40  -168.02     0.40      0.0000      0.00 LINEAR  6.0906E-01     89.82  2.3110E-09    171.42
   60.00    360.00      0.78  -169.11     0.78      0.0000      0.00 LINEAR  6.3670E-01     87.78  2.0379E-09    168.76
   65.00    360.00      1.08  -170.40     1.08      0.0000      0.00 LINEAR  6.5906E-01     85.20  1.7565E-09    165.74
   70.00    360.00      1.30  -171.97     1.30      0.0000      0.00 LINEAR  6.7578E-01     82.12  1.4674E-09    162.31
   75.00    360.00      1.44  -173.93     1.44      0.0000      0.00 LINEAR  6.8660E-01     78.58  1.1709E-09    158.34
   80.00    360.00      1.50  -176.53     1.50      0.0000      0.00 LINEAR  6.9136E-01     74.63  8.6743E-10    153.42
   85.00    360.00      1.48  -180.36     1.48      0.0000      0.00 LINEAR  6.9001E-01     70.29  5.5841E-10    146.20
   90.00    360.00      1.39  -187.25     1.39      0.0000      0.00 LINEAR  6.8262E-01     65.61  2.5260E-10    128.33
  DATA CARD No:   6 EN   0     0     0     0  0.00000E+00  0.00000E+00  0.00000E+00  0.00000E+00  0.00000E+00  0.00000E+00

  TOTAL RUN TIME: 2200 msec